  第1页                                     Fri Mar 28 10:28:06 2025

  ******************************************************************
  *                          E P A N E T H                         *
  *                           水力和水质                           *
  *                            管网分析                            *
  *                           2.00.12版                            *
  ******************************************************************
  
  分析开始于 Fri Mar 28 10:28:06 2025

   
  水力状态:
  -----------------------------------------------------------------------
     0:00:00: 平衡， 在 6 试算之后
     0:00:00: 水库 sk1 is emptying
     0:00:00: 水池 sc1 is filling at 1.00 m
     0:00:00: 水池 sc2 is emptying at 1.00 m
     0:00:00: 水池 sc3 is filling at 1.00 m
     0:00:00: 水池 sc4 is filling at 1.00 m
   
     0:43:55: 平衡， 在 4 试算之后
     0:43:55: 水池 sc2 is filling at 0.00 m
     0:43:55: 水池 sc3 is emptying at 2.21 m
     0:43:55: 水泵 sb3 变化从 open 到 temporarily closed
   
     1:00:00: 平衡， 在 33 试算之后
     1:00:00: 水池 sc2 is emptying at 0.55 m
     1:00:00: 水池 sc3 is filling at 1.76 m
     1:00:00: 水泵 sb3 变化从 temporarily closed 到 open
   
     1:20:59: 平衡， 在 2 试算之后
   
     1:25:53: 平衡， 在 4 试算之后
     1:25:53: 水池 sc2 is filling at -0.00 m
     1:25:53: 水池 sc3 is emptying at 2.47 m
     1:25:53: 水泵 sb3 变化从 open 到 temporarily closed
   
     2:00:00: 平衡， 在 33 试算之后
     2:00:00: 水池 sc2 is emptying at 1.17 m
     2:00:00: 水池 sc3 is filling at 1.53 m
     2:00:00: 水泵 sb3 变化从 temporarily closed 到 open
   
     2:54:28: 平衡， 在 4 试算之后
     2:54:28: 水池 sc2 is filling at -0.00 m
     2:54:28: 水池 sc3 is emptying at 3.08 m
     2:54:28: 水泵 sb3 变化从 open 到 temporarily closed
   
     3:00:00: 平衡， 在 33 试算之后
     3:00:00: 水池 sc2 is emptying at 0.19 m
     3:00:00: 水池 sc3 is filling at 2.92 m
     3:00:00: 水泵 sb3 变化从 temporarily closed 到 open
   
     3:10:06: 平衡， 在 4 试算之后
     3:10:06: 水池 sc2 is filling at 0.00 m
     3:10:06: 水池 sc3 is emptying at 3.19 m
     3:10:06: 水泵 sb3 变化从 open 到 temporarily closed
   
     3:13:01: 平衡， 在 32 试算之后
     3:13:01: 水库 sk1 is closed
     3:13:01: 水池 sc1 is emptying at 3.45 m
     3:13:01: 水池 sc2 is emptying at 0.10 m
     3:13:01: 水池 sc3 is filling at 3.11 m
     3:13:01: Pipe gd1 变化从 open 到 temporarily closed
     3:13:01: 水泵 sb3 变化从 temporarily closed 到 open
   
     3:18:26: 平衡， 在 30 试算之后
     3:18:26: 水库 sk1 is emptying
     3:18:26: 水池 sc1 is filling at 3.26 m
     3:18:26: Pipe gd1 变化从 temporarily closed 到 open
   
     3:20:10: 平衡， 在 4 试算之后
     3:20:10: 水池 sc2 is filling at 0.00 m
     3:20:10: 水池 sc3 is emptying at 3.30 m
     3:20:10: 水泵 sb3 变化从 open 到 temporarily closed
   
     3:35:46: 平衡， 在 33 试算之后
     3:35:46: 水库 sk1 is closed
     3:35:46: 水池 sc1 is emptying at 3.45 m
     3:35:46: 水池 sc2 is emptying at 0.55 m
     3:35:46: 水池 sc3 is filling at 2.86 m
     3:35:46: Pipe gd1 变化从 open 到 temporarily closed
     3:35:46: 水泵 sb3 变化从 temporarily closed 到 open
   
     3:52:03: 平衡， 在 30 试算之后
     3:52:03: 水库 sk1 is emptying
     3:52:03: 水池 sc1 is filling at 2.90 m
     3:52:03: 水池 sc2 is filling at 0.23 m
     3:52:03: 水池 sc3 is emptying at 3.30 m
     3:52:03: Pipe gd1 变化从 temporarily closed 到 open
     3:52:03: Pipe gd3 变化从 open 到 temporarily closed
   
     4:00:00: 平衡， 在 33 试算之后
     4:00:00: 水池 sc2 is emptying at 0.51 m
     4:00:00: 水池 sc3 is filling at 3.08 m
     4:00:00: Pipe gd3 变化从 temporarily closed 到 open
   
     4:08:23: 平衡， 在 4 试算之后
     4:08:23: 水池 sc2 is filling at 0.34 m
     4:08:23: 水池 sc3 is emptying at 3.30 m
     4:08:23: Pipe gd3 变化从 open 到 temporarily closed
   
     4:41:08: 平衡， 在 33 试算之后
     4:41:08: 水库 sk1 is closed
     4:41:08: 水池 sc1 is emptying at 3.45 m
     4:41:08: 水池 sc2 is emptying at 1.48 m
     4:41:08: 水池 sc3 is filling at 2.38 m
     4:41:08: Pipe gd1 变化从 open 到 temporarily closed
     4:41:08: Pipe gd3 变化从 temporarily closed 到 open
   
     5:00:00: 平衡， 在 30 试算之后
     5:00:00: 水库 sk1 is emptying
     5:00:00: 水池 sc1 is filling at 2.82 m
     5:00:00: Pipe gd1 变化从 temporarily closed 到 open
   
     5:14:38: 平衡， 在 4 试算之后
     5:14:38: 水池 sc2 is filling at 0.78 m
     5:14:38: 水池 sc3 is emptying at 3.30 m
     5:14:38: Pipe gd3 变化从 open 到 temporarily closed
   
     5:53:24: 平衡， 在 33 试算之后
     5:53:24: 水库 sk1 is closed
     5:53:24: 水池 sc1 is emptying at 3.45 m
     5:53:24: 水池 sc2 is emptying at 2.12 m
     5:53:24: 水池 sc3 is filling at 2.22 m
     5:53:24: Pipe gd1 变化从 open 到 temporarily closed
     5:53:24: Pipe gd3 变化从 temporarily closed 到 open
   
     6:00:00: 平衡， 在 30 试算之后
     6:00:00: 水库 sk1 is emptying
     6:00:00: 水池 sc1 is filling at 3.23 m
     6:00:00: Pipe gd1 变化从 temporarily closed 到 open
   
     6:17:40: 平衡， 在 4 试算之后
     6:17:40: 水库 sk1 is closed
     6:17:40: 水池 sc1 is emptying at 3.45 m
     6:17:40: Pipe gd1 变化从 open 到 temporarily closed
   
     6:32:40: 平衡， 在 30 试算之后
     6:32:40: 水库 sk1 is emptying
     6:32:40: 水池 sc1 is filling at 2.95 m
     6:32:40: 水池 sc2 is filling at 1.28 m
     6:32:40: 水池 sc3 is emptying at 3.30 m
     6:32:40: Pipe gd1 变化从 temporarily closed 到 open
     6:32:40: Pipe gd3 变化从 open 到 temporarily closed
   
     7:00:00: 平衡， 在 33 试算之后
     7:00:00: 水池 sc2 is emptying at 2.21 m
     7:00:00: 水池 sc3 is filling at 2.54 m
     7:00:00: Pipe gd3 变化从 temporarily closed 到 open
   
     7:13:35: 平衡， 在 4 试算之后
     7:13:35: 水库 sk1 is closed
     7:13:35: 水池 sc1 is emptying at 3.45 m
     7:13:35: Pipe gd1 变化从 open 到 temporarily closed
   
     7:27:47: 平衡， 在 30 试算之后
     7:27:47: 水库 sk1 is emptying
     7:27:47: 水池 sc1 is filling at 2.98 m
     7:27:47: 水池 sc2 is filling at 1.61 m
     7:27:47: 水池 sc3 is emptying at 3.30 m
     7:27:47: Pipe gd1 变化从 temporarily closed 到 open
     7:27:47: Pipe gd3 变化从 open 到 temporarily closed
   
     8:00:00: 平衡， 在 33 试算之后
     8:00:00: 水池 sc2 is emptying at 2.70 m
     8:00:00: 水池 sc3 is filling at 2.40 m
     8:00:00: Pipe gd3 变化从 temporarily closed 到 open
   
     8:05:43: 平衡， 在 4 试算之后
     8:05:43: 水库 sk1 is closed
     8:05:43: 水池 sc1 is emptying at 3.45 m
     8:05:43: Pipe gd1 变化从 open 到 temporarily closed
   
     8:32:16: 平衡， 在 30 试算之后
     8:32:16: 水库 sk1 is emptying
     8:32:16: 水池 sc1 is filling at 2.59 m
     8:32:16: 水池 sc2 is filling at 1.99 m
     8:32:16: 水池 sc3 is emptying at 3.30 m
     8:32:16: Pipe gd1 变化从 temporarily closed 到 open
     8:32:16: Pipe gd3 变化从 open 到 temporarily closed
   
     9:00:00: 平衡， 在 33 试算之后
     9:00:00: 水池 sc2 is emptying at 2.90 m
     9:00:00: 水池 sc3 is filling at 2.52 m
     9:00:00: Pipe gd3 变化从 temporarily closed 到 open
   
     9:27:39: 平衡， 在 4 试算之后
     9:27:39: 水池 sc2 is filling at 2.27 m
     9:27:39: 水池 sc3 is emptying at 3.30 m
     9:27:39: Pipe gd3 变化从 open 到 temporarily closed
   
     9:38:15: 平衡， 在 33 试算之后
     9:38:15: 水库 sk1 is closed
     9:38:15: 水池 sc1 is emptying at 3.45 m
     9:38:15: 水池 sc2 is emptying at 2.63 m
     9:38:15: 水池 sc3 is filling at 3.00 m
     9:38:15: Pipe gd1 变化从 open 到 temporarily closed
     9:38:15: Pipe gd3 变化从 temporarily closed 到 open
   
     9:49:03: 平衡， 在 30 试算之后
     9:49:03: 水库 sk1 is emptying
     9:49:03: 水池 sc1 is filling at 3.10 m
     9:49:03: 水池 sc2 is filling at 2.39 m
     9:49:03: 水池 sc3 is emptying at 3.30 m
     9:49:03: Pipe gd1 变化从 temporarily closed 到 open
     9:49:03: Pipe gd3 变化从 open 到 temporarily closed
   
    10:00:00: 平衡， 在 33 试算之后
    10:00:00: 水池 sc2 is emptying at 2.75 m
    10:00:00: 水池 sc3 is filling at 2.99 m
    10:00:00: Pipe gd3 变化从 temporarily closed 到 open
   
    10:11:08: 平衡， 在 4 试算之后
    10:11:08: 水池 sc2 is filling at 2.50 m
    10:11:08: 水池 sc3 is emptying at 3.30 m
    10:11:08: Pipe gd3 变化从 open 到 temporarily closed
   
    10:16:33: 平衡， 在 33 试算之后
    10:16:33: 水库 sk1 is closed
    10:16:33: 水池 sc1 is emptying at 3.45 m
    10:16:33: 水池 sc2 is emptying at 2.69 m
    10:16:33: 水池 sc3 is filling at 3.15 m
    10:16:33: Pipe gd1 变化从 open 到 temporarily closed
    10:16:33: Pipe gd3 变化从 temporarily closed 到 open
   
    10:22:06: 平衡， 在 30 试算之后
    10:22:06: 水库 sk1 is emptying
    10:22:06: 水池 sc1 is filling at 3.27 m
    10:22:06: 水池 sc2 is filling at 2.56 m
    10:22:06: 水池 sc3 is emptying at 3.30 m
    10:22:06: Pipe gd1 变化从 temporarily closed 到 open
    10:22:06: Pipe gd3 变化从 open 到 temporarily closed
   
    10:36:17: 平衡， 在 33 试算之后
    10:36:17: 水库 sk1 is closed
    10:36:17: 水池 sc1 is emptying at 3.45 m
    10:36:17: 水池 sc2 is emptying at 3.03 m
    10:36:17: 水池 sc3 is filling at 2.90 m
    10:36:17: Pipe gd1 变化从 open 到 temporarily closed
    10:36:17: Pipe gd3 变化从 temporarily closed 到 open
   
    10:50:36: 平衡， 在 30 试算之后
    10:50:36: 水库 sk1 is emptying
    10:50:36: 水池 sc1 is filling at 2.99 m
    10:50:36: 水池 sc2 is filling at 2.71 m
    10:50:36: 水池 sc3 is emptying at 3.30 m
    10:50:36: Pipe gd1 变化从 temporarily closed 到 open
    10:50:36: Pipe gd3 变化从 open 到 temporarily closed
   
    11:00:00: 平衡， 在 33 试算之后
    11:00:00: 水池 sc2 is emptying at 3.02 m
    11:00:00: 水池 sc3 is filling at 3.04 m
    11:00:00: Pipe gd3 变化从 temporarily closed 到 open
   
    11:09:32: 平衡， 在 4 试算之后
    11:09:32: 水池 sc2 is filling at 2.81 m
    11:09:32: 水池 sc3 is emptying at 3.30 m
    11:09:32: Pipe gd3 变化从 open 到 temporarily closed
   
    11:25:51: 平衡， 在 33 试算之后
    11:25:51: 水库 sk1 is closed
    11:25:51: 水池 sc1 is emptying at 3.45 m
    11:25:51: 水池 sc2 is emptying at 3.34 m
    11:25:51: 水池 sc3 is filling at 2.84 m
    11:25:51: Pipe gd1 变化从 open 到 temporarily closed
    11:25:51: Pipe gd3 变化从 temporarily closed 到 open
   
    11:42:13: 平衡， 在 30 试算之后
    11:42:13: 水库 sk1 is emptying
    11:42:13: 水池 sc1 is filling at 2.93 m
    11:42:13: 水池 sc2 is filling at 2.97 m
    11:42:13: 水池 sc3 is emptying at 3.30 m
    11:42:13: Pipe gd1 变化从 temporarily closed 到 open
    11:42:13: Pipe gd3 变化从 open 到 temporarily closed
   
    11:56:58: 平衡， 在 33 试算之后
    11:56:58: 水池 sc2 is emptying at 3.45 m
    11:56:58: 水池 sc3 is filling at 2.89 m
    11:56:58: Pipe gd2 变化从 open 到 temporarily closed
    11:56:58: Pipe gd3 变化从 temporarily closed 到 open
   
    12:00:00: 平衡， 在 32 试算之后
    12:00:00: Pipe gd2 变化从 temporarily closed 到 open
   
    12:11:49: 平衡， 在 4 试算之后
    12:11:49: 水池 sc2 is filling at 3.01 m
    12:11:49: 水池 sc3 is emptying at 3.30 m
    12:11:49: Pipe gd3 变化从 open 到 temporarily closed
   
    12:14:13: 平衡， 在 32 试算之后
    12:14:13: 水库 sk1 is closed
    12:14:13: 水池 sc1 is emptying at 3.45 m
    12:14:13: 水池 sc2 is emptying at 3.09 m
    12:14:13: 水池 sc3 is filling at 3.23 m
    12:14:13: Pipe gd1 变化从 open 到 temporarily closed
    12:14:13: Pipe gd3 变化从 temporarily closed 到 open
   
    12:16:40: 平衡， 在 29 试算之后
    12:16:40: 水库 sk1 is emptying
    12:16:40: 水池 sc1 is filling at 3.37 m
    12:16:40: 水池 sc2 is filling at 3.03 m
    12:16:40: 水池 sc3 is emptying at 3.30 m
    12:16:40: Pipe gd1 变化从 temporarily closed 到 open
    12:16:40: Pipe gd3 变化从 open 到 temporarily closed
   
    12:22:45: 平衡， 在 33 试算之后
    12:22:45: 水库 sk1 is closed
    12:22:45: 水池 sc1 is emptying at 3.45 m
    12:22:45: 水池 sc2 is emptying at 3.23 m
    12:22:45: 水池 sc3 is filling at 3.13 m
    12:22:45: Pipe gd1 变化从 open 到 temporarily closed
    12:22:45: Pipe gd3 变化从 temporarily closed 到 open
   
    12:28:55: 平衡， 在 30 试算之后
    12:28:55: 水库 sk1 is emptying
    12:28:55: 水池 sc1 is filling at 3.25 m
    12:28:55: 水池 sc2 is filling at 3.10 m
    12:28:55: 水池 sc3 is emptying at 3.30 m
    12:28:55: Pipe gd1 变化从 temporarily closed 到 open
    12:28:55: Pipe gd3 变化从 open 到 temporarily closed
   
    12:39:45: 平衡， 在 33 试算之后
    12:39:45: 水池 sc2 is emptying at 3.45 m
    12:39:45: 水池 sc3 is filling at 3.00 m
    12:39:45: Pipe gd2 变化从 open 到 temporarily closed
    12:39:45: Pipe gd3 变化从 temporarily closed 到 open
   
    12:40:59: 平衡， 在 32 试算之后
    12:40:59: 水库 sk1 is closed
    12:40:59: 水池 sc1 is emptying at 3.45 m
    12:40:59: Pipe gd1 变化从 open 到 temporarily closed
    12:40:59: Pipe gd2 变化从 temporarily closed 到 open
   
    12:50:41: 平衡， 在 30 试算之后
    12:50:41: 水库 sk1 is emptying
    12:50:41: 水池 sc1 is filling at 3.14 m
    12:50:41: 水池 sc2 is filling at 3.16 m
    12:50:41: 水池 sc3 is emptying at 3.30 m
    12:50:41: Pipe gd1 变化从 temporarily closed 到 open
    12:50:41: Pipe gd3 变化从 open 到 temporarily closed
   
    12:59:35: 平衡， 在 33 试算之后
    12:59:35: 水池 sc2 is emptying at 3.45 m
    12:59:35: 水池 sc3 is filling at 3.05 m
    12:59:35: Pipe gd2 变化从 open 到 temporarily closed
    12:59:35: Pipe gd3 变化从 temporarily closed 到 open
   
    13:00:00: 平衡， 在 31 试算之后
    13:00:00: Pipe gd2 变化从 temporarily closed 到 open
   
    13:08:34: 平衡， 在 4 试算之后
    13:08:34: 水池 sc2 is filling at 3.23 m
    13:08:34: 水池 sc3 is emptying at 3.30 m
    13:08:34: Pipe gd3 变化从 open 到 temporarily closed
   
    13:12:59: 平衡， 在 33 试算之后
    13:12:59: 水库 sk1 is closed
    13:12:59: 水池 sc1 is emptying at 3.45 m
    13:12:59: 水池 sc2 is emptying at 3.37 m
    13:12:59: 水池 sc3 is filling at 3.18 m
    13:12:59: Pipe gd1 变化从 open 到 temporarily closed
    13:12:59: Pipe gd3 变化从 temporarily closed 到 open
   
    13:17:28: 平衡， 在 30 试算之后
    13:17:28: 水库 sk1 is emptying
    13:17:28: 水池 sc1 is filling at 3.31 m
    13:17:28: 水池 sc2 is filling at 3.27 m
    13:17:28: 水池 sc3 is emptying at 3.30 m
    13:17:28: Pipe gd1 变化从 temporarily closed 到 open
    13:17:28: Pipe gd3 变化从 open 到 temporarily closed
   
    13:22:55: 平衡， 在 33 试算之后
    13:22:55: 水池 sc2 is emptying at 3.45 m
    13:22:55: 水池 sc3 is filling at 3.15 m
    13:22:55: Pipe gd2 变化从 open 到 temporarily closed
    13:22:55: Pipe gd3 变化从 temporarily closed 到 open
   
    13:24:30: 平衡， 在 32 试算之后
    13:24:30: 水库 sk1 is closed
    13:24:30: 水池 sc1 is emptying at 3.45 m
    13:24:30: Pipe gd1 变化从 open 到 temporarily closed
    13:24:30: Pipe gd2 变化从 temporarily closed 到 open
   
    13:28:27: 平衡， 在 30 试算之后
    13:28:27: 水库 sk1 is emptying
    13:28:27: 水池 sc1 is filling at 3.32 m
    13:28:27: 水池 sc2 is filling at 3.27 m
    13:28:27: 水池 sc3 is emptying at 3.30 m
    13:28:27: Pipe gd1 变化从 temporarily closed 到 open
    13:28:27: Pipe gd3 变化从 open 到 temporarily closed
   
    13:33:54: 平衡， 在 33 试算之后
    13:33:54: 水池 sc2 is emptying at 3.45 m
    13:33:54: 水池 sc3 is filling at 3.15 m
    13:33:54: Pipe gd2 变化从 open 到 temporarily closed
    13:33:54: Pipe gd3 变化从 temporarily closed 到 open
   
    13:35:06: 平衡， 在 32 试算之后
    13:35:06: 水库 sk1 is closed
    13:35:06: 水池 sc1 is emptying at 3.45 m
    13:35:06: Pipe gd1 变化从 open 到 temporarily closed
    13:35:06: Pipe gd2 变化从 temporarily closed 到 open
   
    13:39:26: 平衡， 在 30 试算之后
    13:39:26: 水库 sk1 is emptying
    13:39:26: 水池 sc1 is filling at 3.31 m
    13:39:26: 水池 sc2 is filling at 3.28 m
    13:39:26: 水池 sc3 is emptying at 3.30 m
    13:39:26: Pipe gd1 变化从 temporarily closed 到 open
    13:39:26: Pipe gd3 变化从 open 到 temporarily closed
   
    13:44:30: 平衡， 在 33 试算之后
    13:44:30: 水池 sc2 is emptying at 3.45 m
    13:44:30: 水池 sc3 is filling at 3.16 m
    13:44:30: Pipe gd2 变化从 open 到 temporarily closed
    13:44:30: Pipe gd3 变化从 temporarily closed 到 open
   
    13:46:05: 平衡， 在 32 试算之后
    13:46:05: 水库 sk1 is closed
    13:46:05: 水池 sc1 is emptying at 3.45 m
    13:46:05: Pipe gd1 变化从 open 到 temporarily closed
    13:46:05: Pipe gd2 变化从 temporarily closed 到 open
   
    13:49:38: 平衡， 在 30 试算之后
    13:49:38: 水库 sk1 is emptying
    13:49:38: 水池 sc1 is filling at 3.34 m
    13:49:38: 水池 sc2 is filling at 3.28 m
    13:49:38: 水池 sc3 is emptying at 3.30 m
    13:49:38: Pipe gd1 变化从 temporarily closed 到 open
    13:49:38: Pipe gd3 变化从 open 到 temporarily closed
   
    13:54:48: 平衡， 在 33 试算之后
    13:54:48: 水池 sc2 is emptying at 3.45 m
    13:54:48: 水池 sc3 is filling at 3.16 m
    13:54:48: Pipe gd2 变化从 open 到 temporarily closed
    13:54:48: Pipe gd3 变化从 temporarily closed 到 open
   
    13:55:48: 平衡， 在 32 试算之后
    13:55:48: 水库 sk1 is closed
    13:55:48: 水池 sc1 is emptying at 3.45 m
    13:55:48: Pipe gd1 变化从 open 到 temporarily closed
    13:55:48: Pipe gd2 变化从 temporarily closed 到 open
   
    14:00:00: 平衡， 在 30 试算之后
    14:00:00: 水库 sk1 is emptying
    14:00:00: 水池 sc1 is filling at 3.32 m
    14:00:00: Pipe gd1 变化从 temporarily closed 到 open
   
    14:00:02: 平衡， 在 3 试算之后
    14:00:02: 水池 sc2 is filling at 3.30 m
    14:00:02: 水池 sc3 is emptying at 3.30 m
    14:00:02: Pipe gd3 变化从 open 到 temporarily closed
   
    14:04:42: 平衡， 在 33 试算之后
    14:04:42: 水池 sc2 is emptying at 3.45 m
    14:04:42: 水池 sc3 is filling at 3.17 m
    14:04:42: Pipe gd2 变化从 open 到 temporarily closed
    14:04:42: Pipe gd3 变化从 temporarily closed 到 open
   
    14:06:18: 平衡， 在 32 试算之后
    14:06:18: 水库 sk1 is closed
    14:06:18: 水池 sc1 is emptying at 3.45 m
    14:06:18: Pipe gd1 变化从 open 到 temporarily closed
    14:06:18: Pipe gd2 变化从 temporarily closed 到 open
   
    14:09:26: 平衡， 在 30 试算之后
    14:09:26: 水库 sk1 is emptying
    14:09:26: 水池 sc1 is filling at 3.35 m
    14:09:26: 水池 sc2 is filling at 3.29 m
    14:09:26: 水池 sc3 is emptying at 3.30 m
    14:09:26: Pipe gd1 变化从 temporarily closed 到 open
    14:09:26: Pipe gd3 变化从 open 到 temporarily closed
   
    14:14:20: 平衡， 在 33 试算之后
    14:14:20: 水池 sc2 is emptying at 3.45 m
    14:14:20: 水池 sc3 is filling at 3.16 m
    14:14:20: Pipe gd2 变化从 open 到 temporarily closed
    14:14:20: Pipe gd3 变化从 temporarily closed 到 open
   
    14:15:07: 平衡， 在 32 试算之后
    14:15:07: 水库 sk1 is closed
    14:15:07: 水池 sc1 is emptying at 3.45 m
    14:15:07: Pipe gd1 变化从 open 到 temporarily closed
    14:15:07: Pipe gd2 变化从 temporarily closed 到 open
   
    14:19:18: 平衡， 在 30 试算之后
    14:19:18: 水库 sk1 is emptying
    14:19:18: 水池 sc1 is filling at 3.32 m
    14:19:18: 水池 sc2 is filling at 3.31 m
    14:19:18: 水池 sc3 is emptying at 3.30 m
    14:19:18: Pipe gd1 变化从 temporarily closed 到 open
    14:19:18: Pipe gd3 变化从 open 到 temporarily closed
   
    14:23:34: 平衡， 在 33 试算之后
    14:23:34: 水池 sc2 is emptying at 3.45 m
    14:23:34: 水池 sc3 is filling at 3.18 m
    14:23:34: Pipe gd2 变化从 open 到 temporarily closed
    14:23:34: Pipe gd3 变化从 temporarily closed 到 open
   
    14:25:17: 平衡， 在 32 试算之后
    14:25:17: 水库 sk1 is closed
    14:25:17: 水池 sc1 is emptying at 3.45 m
    14:25:17: Pipe gd1 变化从 open 到 temporarily closed
    14:25:17: Pipe gd2 变化从 temporarily closed 到 open
   
    14:27:54: 平衡， 在 29 试算之后
    14:27:54: 水库 sk1 is emptying
    14:27:54: 水池 sc1 is filling at 3.37 m
    14:27:54: 水池 sc2 is filling at 3.30 m
    14:27:54: 水池 sc3 is emptying at 3.30 m
    14:27:54: Pipe gd1 变化从 temporarily closed 到 open
    14:27:54: Pipe gd3 变化从 open 到 temporarily closed
   
    14:32:38: 平衡， 在 33 试算之后
    14:32:38: 水池 sc2 is emptying at 3.45 m
    14:32:38: 水池 sc3 is filling at 3.17 m
    14:32:38: Pipe gd2 变化从 open 到 temporarily closed
    14:32:38: Pipe gd3 变化从 temporarily closed 到 open
   
    14:33:06: 平衡， 在 32 试算之后
    14:33:06: 水库 sk1 is closed
    14:33:06: 水池 sc1 is emptying at 3.45 m
    14:33:06: Pipe gd1 变化从 open 到 temporarily closed
    14:33:06: Pipe gd2 变化从 temporarily closed 到 open
   
    14:37:26: 平衡， 在 30 试算之后
    14:37:26: 水库 sk1 is emptying
    14:37:26: 水池 sc1 is filling at 3.31 m
    14:37:26: 水池 sc2 is filling at 3.33 m
    14:37:26: 水池 sc3 is emptying at 3.30 m
    14:37:26: Pipe gd1 变化从 temporarily closed 到 open
    14:37:26: Pipe gd3 变化从 open 到 temporarily closed
   
    14:41:16: 平衡， 在 33 试算之后
    14:41:16: 水池 sc2 is emptying at 3.45 m
    14:41:16: 水池 sc3 is filling at 3.19 m
    14:41:16: Pipe gd2 变化从 open 到 temporarily closed
    14:41:16: Pipe gd3 变化从 temporarily closed 到 open
   
    14:43:12: 平衡， 在 33 试算之后
    14:43:12: 水库 sk1 is closed
    14:43:12: 水池 sc1 is emptying at 3.45 m
    14:43:12: Pipe gd1 变化从 open 到 temporarily closed
    14:43:12: Pipe gd2 变化从 temporarily closed 到 open
   
    14:45:10: 平衡， 在 29 试算之后
    14:45:10: 水库 sk1 is emptying
    14:45:10: 水池 sc1 is filling at 3.39 m
    14:45:10: 水池 sc2 is filling at 3.30 m
    14:45:10: 水池 sc3 is emptying at 3.30 m
    14:45:10: Pipe gd1 变化从 temporarily closed 到 open
    14:45:10: Pipe gd3 变化从 open 到 temporarily closed
   
    14:49:49: 平衡， 在 33 试算之后
    14:49:49: 水池 sc2 is emptying at 3.45 m
    14:49:49: 水池 sc3 is filling at 3.17 m
    14:49:49: Pipe gd2 变化从 open 到 temporarily closed
    14:49:49: Pipe gd3 变化从 temporarily closed 到 open
   
    14:49:51: 平衡， 在 32 试算之后
    14:49:51: 水库 sk1 is closed
    14:49:51: 水池 sc1 is emptying at 3.45 m
    14:49:51: Pipe gd1 变化从 open 到 temporarily closed
    14:49:51: Pipe gd2 变化从 temporarily closed 到 open
   
    14:54:32: 平衡， 在 30 试算之后
    14:54:32: 水库 sk1 is emptying
    14:54:32: 水池 sc1 is filling at 3.30 m
    14:54:32: 水池 sc2 is filling at 3.34 m
    14:54:32: 水池 sc3 is emptying at 3.30 m
    14:54:32: Pipe gd1 变化从 temporarily closed 到 open
    14:54:32: Pipe gd3 变化从 open 到 temporarily closed
   
    14:57:53: 平衡， 在 33 试算之后
    14:57:53: 水池 sc2 is emptying at 3.45 m
    14:57:53: 水池 sc3 is filling at 3.21 m
    14:57:53: Pipe gd2 变化从 open 到 temporarily closed
    14:57:53: Pipe gd3 变化从 temporarily closed 到 open
   
    15:00:00: 平衡， 在 32 试算之后
    15:00:00: Pipe gd2 变化从 temporarily closed 到 open
   
    15:00:43: 平衡， 在 3 试算之后
    15:00:43: 水库 sk1 is closed
    15:00:43: 水池 sc1 is emptying at 3.45 m
    15:00:43: Pipe gd1 变化从 open 到 temporarily closed
   
    15:01:17: 平衡， 在 29 试算之后
    15:01:17: 水库 sk1 is emptying
    15:01:17: 水池 sc1 is filling at 3.43 m
    15:01:17: 水池 sc2 is filling at 3.30 m
    15:01:17: 水池 sc3 is emptying at 3.30 m
    15:01:17: Pipe gd1 变化从 temporarily closed 到 open
    15:01:17: Pipe gd3 变化从 open 到 temporarily closed
   
    15:02:40: 平衡， 在 32 试算之后
    15:02:40: 水库 sk1 is closed
    15:02:40: 水池 sc1 is emptying at 3.45 m
    15:02:40: 水池 sc2 is emptying at 3.35 m
    15:02:40: 水池 sc3 is filling at 3.26 m
    15:02:40: Pipe gd1 变化从 open 到 temporarily closed
    15:02:40: Pipe gd3 变化从 temporarily closed 到 open
   
    15:04:04: 平衡， 在 29 试算之后
    15:04:04: 水库 sk1 is emptying
    15:04:04: 水池 sc1 is filling at 3.41 m
    15:04:04: 水池 sc2 is filling at 3.32 m
    15:04:04: 水池 sc3 is emptying at 3.30 m
    15:04:04: Pipe gd1 变化从 temporarily closed 到 open
    15:04:04: Pipe gd3 变化从 open 到 temporarily closed
   
    15:07:29: 平衡， 在 33 试算之后
    15:07:29: 水库 sk1 is closed
    15:07:29: 水池 sc1 is emptying at 3.45 m
    15:07:29: 水池 sc2 is emptying at 3.43 m
    15:07:29: 水池 sc3 is filling at 3.20 m
    15:07:29: Pipe gd1 变化从 open 到 temporarily closed
    15:07:29: Pipe gd3 变化从 temporarily closed 到 open
   
    15:10:57: 平衡， 在 30 试算之后
    15:10:57: 水库 sk1 is emptying
    15:10:57: 水池 sc1 is filling at 3.34 m
    15:10:57: 水池 sc2 is filling at 3.35 m
    15:10:57: 水池 sc3 is emptying at 3.30 m
    15:10:57: Pipe gd1 变化从 temporarily closed 到 open
    15:10:57: Pipe gd3 变化从 open 到 temporarily closed
   
    15:14:02: 平衡， 在 33 试算之后
    15:14:02: 水池 sc2 is emptying at 3.45 m
    15:14:02: 水池 sc3 is filling at 3.21 m
    15:14:02: Pipe gd2 变化从 open 到 temporarily closed
    15:14:02: Pipe gd3 变化从 temporarily closed 到 open
   
    15:15:35: 平衡， 在 32 试算之后
    15:15:35: 水库 sk1 is closed
    15:15:35: 水池 sc1 is emptying at 3.45 m
    15:15:35: Pipe gd1 变化从 open 到 temporarily closed
    15:15:35: Pipe gd2 变化从 temporarily closed 到 open
   
    15:17:10: 平衡， 在 29 试算之后
    15:17:10: 水库 sk1 is emptying
    15:17:10: 水池 sc1 is filling at 3.40 m
    15:17:10: 水池 sc2 is filling at 3.33 m
    15:17:10: 水池 sc3 is emptying at 3.30 m
    15:17:10: Pipe gd1 变化从 temporarily closed 到 open
    15:17:10: Pipe gd3 变化从 open 到 temporarily closed
   
    15:20:54: 平衡， 在 33 试算之后
    15:20:54: 水池 sc2 is emptying at 3.45 m
    15:20:54: 水池 sc3 is filling at 3.20 m
    15:20:54: Pipe gd2 变化从 open 到 temporarily closed
    15:20:54: Pipe gd3 变化从 temporarily closed 到 open
   
    15:20:56: 平衡， 在 32 试算之后
    15:20:56: 水库 sk1 is closed
    15:20:56: 水池 sc1 is emptying at 3.45 m
    15:20:56: Pipe gd1 变化从 open 到 temporarily closed
    15:20:56: Pipe gd2 变化从 temporarily closed 到 open
   
    15:24:41: 平衡， 在 30 试算之后
    15:24:41: 水库 sk1 is emptying
    15:24:41: 水池 sc1 is filling at 3.33 m
    15:24:41: 水池 sc2 is filling at 3.36 m
    15:24:41: 水池 sc3 is emptying at 3.30 m
    15:24:41: Pipe gd1 变化从 temporarily closed 到 open
    15:24:41: Pipe gd3 变化从 open 到 temporarily closed
   
    15:27:22: 平衡， 在 32 试算之后
    15:27:22: 水池 sc2 is emptying at 3.45 m
    15:27:22: 水池 sc3 is filling at 3.22 m
    15:27:22: Pipe gd2 变化从 open 到 temporarily closed
    15:27:22: Pipe gd3 变化从 temporarily closed 到 open
   
    15:29:14: 平衡， 在 33 试算之后
    15:29:14: 水库 sk1 is closed
    15:29:14: 水池 sc1 is emptying at 3.45 m
    15:29:14: Pipe gd1 变化从 open 到 temporarily closed
    15:29:14: Pipe gd2 变化从 temporarily closed 到 open
   
    15:30:06: 平衡， 在 29 试算之后
    15:30:06: 水库 sk1 is emptying
    15:30:06: 水池 sc1 is filling at 3.42 m
    15:30:06: 水池 sc2 is filling at 3.33 m
    15:30:06: 水池 sc3 is emptying at 3.30 m
    15:30:06: Pipe gd1 变化从 temporarily closed 到 open
    15:30:06: Pipe gd3 变化从 open 到 temporarily closed
   
    15:32:13: 平衡， 在 32 试算之后
    15:32:13: 水库 sk1 is closed
    15:32:13: 水池 sc1 is emptying at 3.45 m
    15:32:13: 水池 sc2 is emptying at 3.40 m
    15:32:13: 水池 sc3 is filling at 3.24 m
    15:32:13: Pipe gd1 变化从 open 到 temporarily closed
    15:32:13: Pipe gd3 变化从 temporarily closed 到 open
   
    15:34:22: 平衡， 在 29 试算之后
    15:34:22: 水库 sk1 is emptying
    15:34:22: 水池 sc1 is filling at 3.38 m
    15:34:22: 水池 sc2 is filling at 3.35 m
    15:34:22: 水池 sc3 is emptying at 3.30 m
    15:34:22: Pipe gd1 变化从 temporarily closed 到 open
    15:34:22: Pipe gd3 变化从 open 到 temporarily closed
   
    15:37:32: 平衡， 在 33 试算之后
    15:37:32: 水池 sc2 is emptying at 3.45 m
    15:37:32: 水池 sc3 is filling at 3.21 m
    15:37:32: Pipe gd2 变化从 open 到 temporarily closed
    15:37:32: Pipe gd3 变化从 temporarily closed 到 open
   
    15:38:08: 平衡， 在 32 试算之后
    15:38:08: 水库 sk1 is closed
    15:38:08: 水池 sc1 is emptying at 3.45 m
    15:38:08: Pipe gd1 变化从 open 到 temporarily closed
    15:38:08: Pipe gd2 变化从 temporarily closed 到 open
   
    15:40:45: 平衡， 在 29 试算之后
    15:40:45: 水库 sk1 is emptying
    15:40:45: 水池 sc1 is filling at 3.37 m
    15:40:45: 水池 sc2 is filling at 3.36 m
    15:40:45: 水池 sc3 is emptying at 3.30 m
    15:40:45: Pipe gd1 变化从 temporarily closed 到 open
    15:40:45: Pipe gd3 变化从 open 到 temporarily closed
   
    15:43:36: 平衡， 在 32 试算之后
    15:43:36: 水池 sc2 is emptying at 3.45 m
    15:43:36: 水池 sc3 is filling at 3.22 m
    15:43:36: Pipe gd2 变化从 open 到 temporarily closed
    15:43:36: Pipe gd3 变化从 temporarily closed 到 open
   
    15:44:37: 平衡， 在 32 试算之后
    15:44:37: 水库 sk1 is closed
    15:44:37: 水池 sc1 is emptying at 3.45 m
    15:44:37: Pipe gd1 变化从 open 到 temporarily closed
    15:44:37: Pipe gd2 变化从 temporarily closed 到 open
   
    15:46:30: 平衡， 在 29 试算之后
    15:46:30: 水库 sk1 is emptying
    15:46:30: 水池 sc1 is filling at 3.39 m
    15:46:30: 水池 sc2 is filling at 3.35 m
    15:46:30: 水池 sc3 is emptying at 3.30 m
    15:46:30: Pipe gd1 变化从 temporarily closed 到 open
    15:46:30: Pipe gd3 变化从 open 到 temporarily closed
   
    15:49:33: 平衡， 在 33 试算之后
    15:49:33: 水池 sc2 is emptying at 3.45 m
    15:49:33: 水池 sc3 is filling at 3.21 m
    15:49:33: Pipe gd2 变化从 open 到 temporarily closed
    15:49:33: Pipe gd3 变化从 temporarily closed 到 open
   
    15:50:00: 平衡， 在 32 试算之后
    15:50:00: 水库 sk1 is closed
    15:50:00: 水池 sc1 is emptying at 3.45 m
    15:50:00: Pipe gd1 变化从 open 到 temporarily closed
    15:50:00: Pipe gd2 变化从 temporarily closed 到 open
   
    15:52:39: 平衡， 在 29 试算之后
    15:52:39: 水库 sk1 is emptying
    15:52:39: 水池 sc1 is filling at 3.37 m
    15:52:39: 水池 sc2 is filling at 3.36 m
    15:52:39: 水池 sc3 is emptying at 3.30 m
    15:52:39: Pipe gd1 变化从 temporarily closed 到 open
    15:52:39: Pipe gd3 变化从 open 到 temporarily closed
   
    15:55:16: 平衡， 在 32 试算之后
    15:55:16: 水池 sc2 is emptying at 3.45 m
    15:55:16: 水池 sc3 is filling at 3.23 m
    15:55:16: Pipe gd2 变化从 open 到 temporarily closed
    15:55:16: Pipe gd3 变化从 temporarily closed 到 open
   
    15:56:23: 平衡， 在 32 试算之后
    15:56:23: 水库 sk1 is closed
    15:56:23: 水池 sc1 is emptying at 3.45 m
    15:56:23: Pipe gd1 变化从 open 到 temporarily closed
    15:56:23: Pipe gd2 变化从 temporarily closed 到 open
   
    15:57:56: 平衡， 在 29 试算之后
    15:57:56: 水库 sk1 is emptying
    15:57:56: 水池 sc1 is filling at 3.40 m
    15:57:56: 水池 sc2 is filling at 3.35 m
    15:57:56: 水池 sc3 is emptying at 3.30 m
    15:57:56: Pipe gd1 变化从 temporarily closed 到 open
    15:57:56: Pipe gd3 变化从 open 到 temporarily closed
   
    16:00:00: 平衡， 在 32 试算之后
    16:00:00: 水池 sc2 is emptying at 3.42 m
    16:00:00: 水池 sc3 is filling at 3.24 m
    16:00:00: Pipe gd3 变化从 temporarily closed 到 open
   
    16:01:42: 平衡， 在 3 试算之后
    16:01:42: 水库 sk1 is closed
    16:01:42: 水池 sc1 is emptying at 3.45 m
    16:01:42: Pipe gd1 变化从 open 到 temporarily closed
   
    16:02:06: 平衡， 在 29 试算之后
    16:02:06: 水库 sk1 is emptying
    16:02:06: 水池 sc1 is filling at 3.44 m
    16:02:06: 水池 sc2 is filling at 3.37 m
    16:02:06: 水池 sc3 is emptying at 3.30 m
    16:02:06: Pipe gd1 变化从 temporarily closed 到 open
    16:02:06: Pipe gd3 变化从 open 到 temporarily closed
   
    16:03:04: 平衡， 在 32 试算之后
    16:03:04: 水库 sk1 is closed
    16:03:04: 水池 sc1 is emptying at 3.45 m
    16:03:04: 水池 sc2 is emptying at 3.40 m
    16:03:04: 水池 sc3 is filling at 3.27 m
    16:03:04: Pipe gd1 变化从 open 到 temporarily closed
    16:03:04: Pipe gd3 变化从 temporarily closed 到 open
   
    16:04:03: 平衡， 在 29 试算之后
    16:04:03: 水库 sk1 is emptying
    16:04:03: 水池 sc1 is filling at 3.42 m
    16:04:03: 水池 sc2 is filling at 3.38 m
    16:04:03: 水池 sc3 is emptying at 3.30 m
    16:04:03: Pipe gd1 变化从 temporarily closed 到 open
    16:04:03: Pipe gd3 变化从 open 到 temporarily closed
   
    16:06:09: 平衡， 在 32 试算之后
    16:06:09: 水池 sc2 is emptying at 3.45 m
    16:06:09: 水池 sc3 is filling at 3.24 m
    16:06:09: Pipe gd2 变化从 open 到 temporarily closed
    16:06:09: Pipe gd3 变化从 temporarily closed 到 open
   
    16:06:14: 平衡， 在 32 试算之后
    16:06:14: 水库 sk1 is closed
    16:06:14: 水池 sc1 is emptying at 3.45 m
    16:06:14: Pipe gd1 变化从 open 到 temporarily closed
    16:06:14: Pipe gd2 变化从 temporarily closed 到 open
   
    16:08:17: 平衡， 在 29 试算之后
    16:08:17: 水库 sk1 is emptying
    16:08:17: 水池 sc1 is filling at 3.38 m
    16:08:17: 水池 sc2 is filling at 3.40 m
    16:08:17: 水池 sc3 is emptying at 3.30 m
    16:08:17: Pipe gd1 变化从 temporarily closed 到 open
    16:08:17: Pipe gd3 变化从 open 到 temporarily closed
   
    16:09:52: 平衡， 在 32 试算之后
    16:09:52: 水池 sc2 is emptying at 3.45 m
    16:09:52: 水池 sc3 is filling at 3.26 m
    16:09:52: Pipe gd2 变化从 open 到 temporarily closed
    16:09:52: Pipe gd3 变化从 temporarily closed 到 open
   
    16:10:51: 平衡， 在 32 试算之后
    16:10:51: 水库 sk1 is closed
    16:10:51: 水池 sc1 is emptying at 3.45 m
    16:10:51: Pipe gd1 变化从 open 到 temporarily closed
    16:10:51: Pipe gd2 变化从 temporarily closed 到 open
   
    16:11:29: 平衡， 在 29 试算之后
    16:11:29: 水库 sk1 is emptying
    16:11:29: 水池 sc1 is filling at 3.43 m
    16:11:29: 水池 sc2 is filling at 3.38 m
    16:11:29: 水池 sc3 is emptying at 3.30 m
    16:11:29: Pipe gd1 变化从 temporarily closed 到 open
    16:11:29: Pipe gd3 变化从 open 到 temporarily closed
   
    16:13:01: 平衡， 在 32 试算之后
    16:13:01: 水库 sk1 is closed
    16:13:01: 水池 sc1 is emptying at 3.45 m
    16:13:01: 水池 sc2 is emptying at 3.43 m
    16:13:01: 水池 sc3 is filling at 3.26 m
    16:13:01: Pipe gd1 变化从 open 到 temporarily closed
    16:13:01: Pipe gd3 变化从 temporarily closed 到 open
   
    16:14:35: 平衡， 在 29 试算之后
    16:14:35: 水库 sk1 is emptying
    16:14:35: 水池 sc1 is filling at 3.40 m
    16:14:35: 水池 sc2 is filling at 3.40 m
    16:14:35: 水池 sc3 is emptying at 3.30 m
    16:14:35: Pipe gd1 变化从 temporarily closed 到 open
    16:14:35: Pipe gd3 变化从 open 到 temporarily closed
   
    16:16:16: 平衡， 在 32 试算之后
    16:16:16: 水池 sc2 is emptying at 3.45 m
    16:16:16: 水池 sc3 is filling at 3.25 m
    16:16:16: Pipe gd2 变化从 open 到 temporarily closed
    16:16:16: Pipe gd3 变化从 temporarily closed 到 open
   
    16:16:53: 平衡， 在 32 试算之后
    16:16:53: 水库 sk1 is closed
    16:16:53: 水池 sc1 is emptying at 3.45 m
    16:16:53: Pipe gd1 变化从 open 到 temporarily closed
    16:16:53: Pipe gd2 变化从 temporarily closed 到 open
   
    16:17:59: 平衡， 在 29 试算之后
    16:17:59: 水库 sk1 is emptying
    16:17:59: 水池 sc1 is filling at 3.42 m
    16:17:59: 水池 sc2 is filling at 3.39 m
    16:17:59: 水池 sc3 is emptying at 3.30 m
    16:17:59: Pipe gd1 变化从 temporarily closed 到 open
    16:17:59: Pipe gd3 变化从 open 到 temporarily closed
   
    16:19:48: 平衡， 在 32 试算之后
    16:19:48: 水池 sc2 is emptying at 3.45 m
    16:19:48: 水池 sc3 is filling at 3.25 m
    16:19:48: Pipe gd2 变化从 open 到 temporarily closed
    16:19:48: Pipe gd3 变化从 temporarily closed 到 open
   
    16:20:03: 平衡， 在 32 试算之后
    16:20:03: 水库 sk1 is closed
    16:20:03: 水池 sc1 is emptying at 3.45 m
    16:20:03: Pipe gd1 变化从 open 到 temporarily closed
    16:20:03: Pipe gd2 变化从 temporarily closed 到 open
   
    16:21:39: 平衡， 在 29 试算之后
    16:21:39: 水库 sk1 is emptying
    16:21:39: 水池 sc1 is filling at 3.40 m
    16:21:39: 水池 sc2 is filling at 3.40 m
    16:21:39: 水池 sc3 is emptying at 3.30 m
    16:21:39: Pipe gd1 变化从 temporarily closed 到 open
    16:21:39: Pipe gd3 变化从 open 到 temporarily closed
   
    16:23:12: 平衡， 在 32 试算之后
    16:23:12: 水池 sc2 is emptying at 3.45 m
    16:23:12: 水池 sc3 is filling at 3.26 m
    16:23:12: Pipe gd2 变化从 open 到 temporarily closed
    16:23:12: Pipe gd3 变化从 temporarily closed 到 open
   
    16:23:53: 平衡， 在 32 试算之后
    16:23:53: 水库 sk1 is closed
    16:23:53: 水池 sc1 is emptying at 3.45 m
    16:23:53: Pipe gd1 变化从 open 到 temporarily closed
    16:23:53: Pipe gd2 变化从 temporarily closed 到 open
   
    16:24:47: 平衡， 在 29 试算之后
    16:24:47: 水库 sk1 is emptying
    16:24:47: 水池 sc1 is filling at 3.42 m
    16:24:47: 水池 sc2 is filling at 3.39 m
    16:24:47: 水池 sc3 is emptying at 3.30 m
    16:24:47: Pipe gd1 变化从 temporarily closed 到 open
    16:24:47: Pipe gd3 变化从 open 到 temporarily closed
   
    16:26:34: 平衡， 在 32 试算之后
    16:26:34: 水池 sc2 is emptying at 3.45 m
    16:26:34: 水池 sc3 is filling at 3.25 m
    16:26:34: Pipe gd2 变化从 open 到 temporarily closed
    16:26:34: Pipe gd3 变化从 temporarily closed 到 open
   
    16:26:41: 平衡， 在 32 试算之后
    16:26:41: 水库 sk1 is closed
    16:26:41: 水池 sc1 is emptying at 3.45 m
    16:26:41: Pipe gd1 变化从 open 到 temporarily closed
    16:26:41: Pipe gd2 变化从 temporarily closed 到 open
   
    16:28:23: 平衡， 在 29 试算之后
    16:28:23: 水库 sk1 is emptying
    16:28:23: 水池 sc1 is filling at 3.40 m
    16:28:23: 水池 sc2 is filling at 3.40 m
    16:28:23: 水池 sc3 is emptying at 3.30 m
    16:28:23: Pipe gd1 变化从 temporarily closed 到 open
    16:28:23: Pipe gd3 变化从 open 到 temporarily closed
   
    16:29:46: 平衡， 在 32 试算之后
    16:29:46: 水池 sc2 is emptying at 3.45 m
    16:29:46: 水池 sc3 is filling at 3.26 m
    16:29:46: Pipe gd2 变化从 open 到 temporarily closed
    16:29:46: Pipe gd3 变化从 temporarily closed 到 open
   
    16:30:34: 平衡， 在 32 试算之后
    16:30:34: 水库 sk1 is closed
    16:30:34: 水池 sc1 is emptying at 3.45 m
    16:30:34: Pipe gd1 变化从 open 到 temporarily closed
    16:30:34: Pipe gd2 变化从 temporarily closed 到 open
   
    16:31:10: 平衡， 在 29 试算之后
    16:31:10: 水库 sk1 is emptying
    16:31:10: 水池 sc1 is filling at 3.43 m
    16:31:10: 水池 sc2 is filling at 3.39 m
    16:31:10: 水池 sc3 is emptying at 3.30 m
    16:31:10: Pipe gd1 变化从 temporarily closed 到 open
    16:31:10: Pipe gd3 变化从 open 到 temporarily closed
   
    16:32:37: 平衡， 在 32 试算之后
    16:32:37: 水库 sk1 is closed
    16:32:37: 水池 sc1 is emptying at 3.45 m
    16:32:37: 水池 sc2 is emptying at 3.44 m
    16:32:37: 水池 sc3 is filling at 3.26 m
    16:32:37: Pipe gd1 变化从 open 到 temporarily closed
    16:32:37: Pipe gd3 变化从 temporarily closed 到 open
   
    16:34:05: 平衡， 在 29 试算之后
    16:34:05: 水库 sk1 is emptying
    16:34:05: 水池 sc1 is filling at 3.40 m
    16:34:05: 水池 sc2 is filling at 3.41 m
    16:34:05: 水池 sc3 is emptying at 3.30 m
    16:34:05: Pipe gd1 变化从 temporarily closed 到 open
    16:34:05: Pipe gd3 变化从 open 到 temporarily closed
   
    16:35:26: 平衡， 在 32 试算之后
    16:35:26: 水池 sc2 is emptying at 3.45 m
    16:35:26: 水池 sc3 is filling at 3.26 m
    16:35:26: Pipe gd2 变化从 open 到 temporarily closed
    16:35:26: Pipe gd3 变化从 temporarily closed 到 open
   
    16:36:05: 平衡， 在 32 试算之后
    16:36:05: 水库 sk1 is closed
    16:36:05: 水池 sc1 is emptying at 3.45 m
    16:36:05: Pipe gd1 变化从 open 到 temporarily closed
    16:36:05: Pipe gd2 变化从 temporarily closed 到 open
   
    16:36:48: 平衡， 在 29 试算之后
    16:36:48: 水库 sk1 is emptying
    16:36:48: 水池 sc1 is filling at 3.43 m
    16:36:48: 水池 sc2 is filling at 3.40 m
    16:36:48: 水池 sc3 is emptying at 3.30 m
    16:36:48: Pipe gd1 变化从 temporarily closed 到 open
    16:36:48: Pipe gd3 变化从 open 到 temporarily closed
   
    16:38:24: 平衡， 在 32 试算之后
    16:38:24: 水池 sc2 is emptying at 3.45 m
    16:38:24: 水池 sc3 is filling at 3.26 m
    16:38:24: Pipe gd2 变化从 open 到 temporarily closed
    16:38:24: Pipe gd3 变化从 temporarily closed 到 open
   
    16:38:26: 平衡， 在 32 试算之后
    16:38:26: 水库 sk1 is closed
    16:38:26: 水池 sc1 is emptying at 3.45 m
    16:38:26: Pipe gd1 变化从 open 到 temporarily closed
    16:38:26: Pipe gd2 变化从 temporarily closed 到 open
   
    16:40:02: 平衡， 在 29 试算之后
    16:40:02: 水库 sk1 is emptying
    16:40:02: 水池 sc1 is filling at 3.40 m
    16:40:02: 水池 sc2 is filling at 3.41 m
    16:40:02: 水池 sc3 is emptying at 3.30 m
    16:40:02: Pipe gd1 变化从 temporarily closed 到 open
    16:40:02: Pipe gd3 变化从 open 到 temporarily closed
   
    16:41:13: 平衡， 在 32 试算之后
    16:41:13: 水池 sc2 is emptying at 3.45 m
    16:41:13: 水池 sc3 is filling at 3.27 m
    16:41:13: Pipe gd2 变化从 open 到 temporarily closed
    16:41:13: Pipe gd3 变化从 temporarily closed 到 open
   
    16:42:00: 平衡， 在 32 试算之后
    16:42:00: 水库 sk1 is closed
    16:42:00: 水池 sc1 is emptying at 3.45 m
    16:42:00: Pipe gd1 变化从 open 到 temporarily closed
    16:42:00: Pipe gd2 变化从 temporarily closed 到 open
   
    16:42:25: 平衡， 在 29 试算之后
    16:42:25: 水库 sk1 is emptying
    16:42:25: 水池 sc1 is filling at 3.44 m
    16:42:25: 水池 sc2 is filling at 3.40 m
    16:42:25: 水池 sc3 is emptying at 3.30 m
    16:42:25: Pipe gd1 变化从 temporarily closed 到 open
    16:42:25: Pipe gd3 变化从 open 到 temporarily closed
   
    16:43:26: 平衡， 在 32 试算之后
    16:43:26: 水库 sk1 is closed
    16:43:26: 水池 sc1 is emptying at 3.45 m
    16:43:26: 水池 sc2 is emptying at 3.43 m
    16:43:26: 水池 sc3 is filling at 3.27 m
    16:43:26: Pipe gd1 变化从 open 到 temporarily closed
    16:43:26: Pipe gd3 变化从 temporarily closed 到 open
   
    16:44:28: 平衡， 在 29 试算之后
    16:44:28: 水库 sk1 is emptying
    16:44:28: 水池 sc1 is filling at 3.42 m
    16:44:28: 水池 sc2 is filling at 3.41 m
    16:44:28: 水池 sc3 is emptying at 3.30 m
    16:44:28: Pipe gd1 变化从 temporarily closed 到 open
    16:44:28: Pipe gd3 变化从 open 到 temporarily closed
   
    16:45:48: 平衡， 在 32 试算之后
    16:45:48: 水池 sc2 is emptying at 3.45 m
    16:45:48: 水池 sc3 is filling at 3.26 m
    16:45:48: Pipe gd2 变化从 open 到 temporarily closed
    16:45:48: Pipe gd3 变化从 temporarily closed 到 open
   
    16:46:08: 平衡， 在 32 试算之后
    16:46:08: 水库 sk1 is closed
    16:46:08: 水池 sc1 is emptying at 3.45 m
    16:46:08: Pipe gd1 变化从 open 到 temporarily closed
    16:46:08: Pipe gd2 变化从 temporarily closed 到 open
   
    16:47:09: 平衡， 在 29 试算之后
    16:47:09: 水库 sk1 is emptying
    16:47:09: 水池 sc1 is filling at 3.42 m
    16:47:09: 水池 sc2 is filling at 3.41 m
    16:47:09: 水池 sc3 is emptying at 3.30 m
    16:47:09: Pipe gd1 变化从 temporarily closed 到 open
    16:47:09: Pipe gd3 变化从 open 到 temporarily closed
   
    16:48:26: 平衡， 在 32 试算之后
    16:48:26: 水池 sc2 is emptying at 3.45 m
    16:48:26: 水池 sc3 is filling at 3.26 m
    16:48:26: Pipe gd2 变化从 open 到 temporarily closed
    16:48:26: Pipe gd3 变化从 temporarily closed 到 open
   
    16:48:47: 平衡， 在 32 试算之后
    16:48:47: 水库 sk1 is closed
    16:48:47: 水池 sc1 is emptying at 3.45 m
    16:48:47: Pipe gd1 变化从 open 到 temporarily closed
    16:48:47: Pipe gd2 变化从 temporarily closed 到 open
   
    16:49:44: 平衡， 在 29 试算之后
    16:49:44: 水库 sk1 is emptying
    16:49:44: 水池 sc1 is filling at 3.42 m
    16:49:44: 水池 sc2 is filling at 3.41 m
    16:49:44: 水池 sc3 is emptying at 3.30 m
    16:49:44: Pipe gd1 变化从 temporarily closed 到 open
    16:49:44: Pipe gd3 变化从 open 到 temporarily closed
   
    16:51:00: 平衡， 在 32 试算之后
    16:51:00: 水池 sc2 is emptying at 3.45 m
    16:51:00: 水池 sc3 is filling at 3.26 m
    16:51:00: Pipe gd2 变化从 open 到 temporarily closed
    16:51:00: Pipe gd3 变化从 temporarily closed 到 open
   
    16:51:18: 平衡， 在 32 试算之后
    16:51:18: 水库 sk1 is closed
    16:51:18: 水池 sc1 is emptying at 3.45 m
    16:51:18: Pipe gd1 变化从 open 到 temporarily closed
    16:51:18: Pipe gd2 变化从 temporarily closed 到 open
   
    16:52:17: 平衡， 在 29 试算之后
    16:52:17: 水库 sk1 is emptying
    16:52:17: 水池 sc1 is filling at 3.42 m
    16:52:17: 水池 sc2 is filling at 3.41 m
    16:52:17: 水池 sc3 is emptying at 3.30 m
    16:52:17: Pipe gd1 变化从 temporarily closed 到 open
    16:52:17: Pipe gd3 变化从 open 到 temporarily closed
   
    16:53:29: 平衡， 在 32 试算之后
    16:53:29: 水池 sc2 is emptying at 3.45 m
    16:53:29: 水池 sc3 is filling at 3.27 m
    16:53:29: Pipe gd2 变化从 open 到 temporarily closed
    16:53:29: Pipe gd3 变化从 temporarily closed 到 open
   
    16:53:50: 平衡， 在 32 试算之后
    16:53:50: 水库 sk1 is closed
    16:53:50: 水池 sc1 is emptying at 3.45 m
    16:53:50: Pipe gd1 变化从 open 到 temporarily closed
    16:53:50: Pipe gd2 变化从 temporarily closed 到 open
   
    16:54:42: 平衡， 在 29 试算之后
    16:54:42: 水库 sk1 is emptying
    16:54:42: 水池 sc1 is filling at 3.42 m
    16:54:42: 水池 sc2 is filling at 3.41 m
    16:54:42: 水池 sc3 is emptying at 3.30 m
    16:54:42: Pipe gd1 变化从 temporarily closed 到 open
    16:54:42: Pipe gd3 变化从 open 到 temporarily closed
   
    16:55:54: 平衡， 在 32 试算之后
    16:55:54: 水池 sc2 is emptying at 3.45 m
    16:55:54: 水池 sc3 is filling at 3.27 m
    16:55:54: Pipe gd2 变化从 open 到 temporarily closed
    16:55:54: Pipe gd3 变化从 temporarily closed 到 open
   
    16:56:10: 平衡， 在 32 试算之后
    16:56:10: 水库 sk1 is closed
    16:56:10: 水池 sc1 is emptying at 3.45 m
    16:56:10: Pipe gd1 变化从 open 到 temporarily closed
    16:56:10: Pipe gd2 变化从 temporarily closed 到 open
   
    16:57:07: 平衡， 在 29 试算之后
    16:57:07: 水库 sk1 is emptying
    16:57:07: 水池 sc1 is filling at 3.42 m
    16:57:07: 水池 sc2 is filling at 3.41 m
    16:57:07: 水池 sc3 is emptying at 3.30 m
    16:57:07: Pipe gd1 变化从 temporarily closed 到 open
    16:57:07: Pipe gd3 变化从 open 到 temporarily closed
   
    16:58:14: 平衡， 在 32 试算之后
    16:58:14: 水池 sc2 is emptying at 3.45 m
    16:58:14: 水池 sc3 is filling at 3.27 m
    16:58:14: Pipe gd2 变化从 open 到 temporarily closed
    16:58:14: Pipe gd3 变化从 temporarily closed 到 open
   
    16:58:35: 平衡， 在 32 试算之后
    16:58:35: 水库 sk1 is closed
    16:58:35: 水池 sc1 is emptying at 3.45 m
    16:58:35: Pipe gd1 变化从 open 到 temporarily closed
    16:58:35: Pipe gd2 变化从 temporarily closed 到 open
   
    16:59:22: 平衡， 在 29 试算之后
    16:59:22: 水库 sk1 is emptying
    16:59:22: 水池 sc1 is filling at 3.43 m
    16:59:22: 水池 sc2 is filling at 3.41 m
    16:59:22: 水池 sc3 is emptying at 3.30 m
    16:59:22: Pipe gd1 变化从 temporarily closed 到 open
    16:59:22: Pipe gd3 变化从 open 到 temporarily closed
   
    17:00:00: 平衡， 在 32 试算之后
    17:00:00: 水池 sc2 is emptying at 3.43 m
    17:00:00: 水池 sc3 is filling at 3.28 m
    17:00:00: Pipe gd3 变化从 temporarily closed 到 open
   
    17:00:39: 平衡， 在 3 试算之后
    17:00:39: 水池 sc2 is filling at 3.42 m
    17:00:39: 水池 sc3 is emptying at 3.30 m
    17:00:39: Pipe gd3 变化从 open 到 temporarily closed
   
    17:01:16: 平衡， 在 32 试算之后
    17:01:16: 水库 sk1 is closed
    17:01:16: 水池 sc1 is emptying at 3.45 m
    17:01:16: 水池 sc2 is emptying at 3.44 m
    17:01:16: 水池 sc3 is filling at 3.28 m
    17:01:16: Pipe gd1 变化从 open 到 temporarily closed
    17:01:16: Pipe gd3 变化从 temporarily closed 到 open
   
    17:01:54: 平衡， 在 29 试算之后
    17:01:54: 水库 sk1 is emptying
    17:01:54: 水池 sc1 is filling at 3.43 m
    17:01:54: 水池 sc2 is filling at 3.42 m
    17:01:54: 水池 sc3 is emptying at 3.30 m
    17:01:54: Pipe gd1 变化从 temporarily closed 到 open
    17:01:54: Pipe gd3 变化从 open 到 temporarily closed
   
    17:02:41: 平衡， 在 32 试算之后
    17:02:41: 水池 sc2 is emptying at 3.45 m
    17:02:41: 水池 sc3 is filling at 3.28 m
    17:02:41: Pipe gd2 变化从 open 到 temporarily closed
    17:02:41: Pipe gd3 变化从 temporarily closed 到 open
   
    17:02:54: 平衡， 在 32 试算之后
    17:02:54: 水库 sk1 is closed
    17:02:54: 水池 sc1 is emptying at 3.45 m
    17:02:54: Pipe gd1 变化从 open 到 temporarily closed
    17:02:54: Pipe gd2 变化从 temporarily closed 到 open
   
    17:03:29: 平衡， 在 29 试算之后
    17:03:29: 水库 sk1 is emptying
    17:03:29: 水池 sc1 is filling at 3.43 m
    17:03:29: 水池 sc2 is filling at 3.42 m
    17:03:29: 水池 sc3 is emptying at 3.30 m
    17:03:29: Pipe gd1 变化从 temporarily closed 到 open
    17:03:29: Pipe gd3 变化从 open 到 temporarily closed
   
    17:04:16: 平衡， 在 32 试算之后
    17:04:16: 水池 sc2 is emptying at 3.45 m
    17:04:16: 水池 sc3 is filling at 3.28 m
    17:04:16: Pipe gd2 变化从 open 到 temporarily closed
    17:04:16: Pipe gd3 变化从 temporarily closed 到 open
   
    17:04:27: 平衡， 在 32 试算之后
    17:04:27: 水库 sk1 is closed
    17:04:27: 水池 sc1 is emptying at 3.45 m
    17:04:27: Pipe gd1 变化从 open 到 temporarily closed
    17:04:27: Pipe gd2 变化从 temporarily closed 到 open
   
    17:05:04: 平衡， 在 29 试算之后
    17:05:04: 水库 sk1 is emptying
    17:05:04: 水池 sc1 is filling at 3.43 m
    17:05:04: 水池 sc2 is filling at 3.43 m
    17:05:04: 水池 sc3 is emptying at 3.30 m
    17:05:04: Pipe gd1 变化从 temporarily closed 到 open
    17:05:04: Pipe gd3 变化从 open 到 temporarily closed
   
    17:05:49: 平衡， 在 32 试算之后
    17:05:49: 水池 sc2 is emptying at 3.45 m
    17:05:49: 水池 sc3 is filling at 3.28 m
    17:05:49: Pipe gd2 变化从 open 到 temporarily closed
    17:05:49: Pipe gd3 变化从 temporarily closed 到 open
   
    17:06:02: 平衡， 在 32 试算之后
    17:06:02: 水库 sk1 is closed
    17:06:02: 水池 sc1 is emptying at 3.45 m
    17:06:02: Pipe gd1 变化从 open 到 temporarily closed
    17:06:02: Pipe gd2 变化从 temporarily closed 到 open
   
    17:06:35: 平衡， 在 29 试算之后
    17:06:35: 水库 sk1 is emptying
    17:06:35: 水池 sc1 is filling at 3.43 m
    17:06:35: 水池 sc2 is filling at 3.43 m
    17:06:35: 水池 sc3 is emptying at 3.30 m
    17:06:35: Pipe gd1 变化从 temporarily closed 到 open
    17:06:35: Pipe gd3 变化从 open 到 temporarily closed
   
    17:07:20: 平衡， 在 32 试算之后
    17:07:20: 水池 sc2 is emptying at 3.45 m
    17:07:20: 水池 sc3 is filling at 3.28 m
    17:07:20: Pipe gd2 变化从 open 到 temporarily closed
    17:07:20: Pipe gd3 变化从 temporarily closed 到 open
   
    17:07:30: 平衡， 在 32 试算之后
    17:07:30: 水库 sk1 is closed
    17:07:30: 水池 sc1 is emptying at 3.45 m
    17:07:30: Pipe gd1 变化从 open 到 temporarily closed
    17:07:30: Pipe gd2 变化从 temporarily closed 到 open
   
    17:08:06: 平衡， 在 29 试算之后
    17:08:06: 水库 sk1 is emptying
    17:08:06: 水池 sc1 is filling at 3.43 m
    17:08:06: 水池 sc2 is filling at 3.43 m
    17:08:06: 水池 sc3 is emptying at 3.30 m
    17:08:06: Pipe gd1 变化从 temporarily closed 到 open
    17:08:06: Pipe gd3 变化从 open 到 temporarily closed
   
    17:08:48: 平衡， 在 32 试算之后
    17:08:48: 水池 sc2 is emptying at 3.45 m
    17:08:48: 水池 sc3 is filling at 3.28 m
    17:08:48: Pipe gd2 变化从 open 到 temporarily closed
    17:08:48: Pipe gd3 变化从 temporarily closed 到 open
   
    17:09:01: 平衡， 在 32 试算之后
    17:09:01: 水库 sk1 is closed
    17:09:01: 水池 sc1 is emptying at 3.45 m
    17:09:01: Pipe gd1 变化从 open 到 temporarily closed
    17:09:01: Pipe gd2 变化从 temporarily closed 到 open
   
    17:09:31: 平衡， 在 29 试算之后
    17:09:31: 水库 sk1 is emptying
    17:09:31: 水池 sc1 is filling at 3.43 m
    17:09:31: 水池 sc2 is filling at 3.43 m
    17:09:31: 水池 sc3 is emptying at 3.30 m
    17:09:31: Pipe gd1 变化从 temporarily closed 到 open
    17:09:31: Pipe gd3 变化从 open 到 temporarily closed
   
    17:10:14: 平衡， 在 32 试算之后
    17:10:14: 水池 sc2 is emptying at 3.45 m
    17:10:14: 水池 sc3 is filling at 3.28 m
    17:10:14: Pipe gd2 变化从 open 到 temporarily closed
    17:10:14: Pipe gd3 变化从 temporarily closed 到 open
   
    17:10:23: 平衡， 在 32 试算之后
    17:10:23: 水库 sk1 is closed
    17:10:23: 水池 sc1 is emptying at 3.45 m
    17:10:23: Pipe gd1 变化从 open 到 temporarily closed
    17:10:23: Pipe gd2 变化从 temporarily closed 到 open
   
    17:10:58: 平衡， 在 29 试算之后
    17:10:58: 水库 sk1 is emptying
    17:10:58: 水池 sc1 is filling at 3.43 m
    17:10:58: 水池 sc2 is filling at 3.43 m
    17:10:58: 水池 sc3 is emptying at 3.30 m
    17:10:58: Pipe gd1 变化从 temporarily closed 到 open
    17:10:58: Pipe gd3 变化从 open 到 temporarily closed
   
    17:11:38: 平衡， 在 32 试算之后
    17:11:38: 水池 sc2 is emptying at 3.45 m
    17:11:38: 水池 sc3 is filling at 3.28 m
    17:11:38: Pipe gd2 变化从 open 到 temporarily closed
    17:11:38: Pipe gd3 变化从 temporarily closed 到 open
   
    17:11:51: 平衡， 在 32 试算之后
    17:11:51: 水库 sk1 is closed
    17:11:51: 水池 sc1 is emptying at 3.45 m
    17:11:51: Pipe gd1 变化从 open 到 temporarily closed
    17:11:51: Pipe gd2 变化从 temporarily closed 到 open
   
    17:12:19: 平衡， 在 29 试算之后
    17:12:19: 水库 sk1 is emptying
    17:12:19: 水池 sc1 is filling at 3.44 m
    17:12:19: 水池 sc2 is filling at 3.43 m
    17:12:19: 水池 sc3 is emptying at 3.30 m
    17:12:19: Pipe gd1 变化从 temporarily closed 到 open
    17:12:19: Pipe gd3 变化从 open 到 temporarily closed
   
    17:13:01: 平衡， 在 32 试算之后
    17:13:01: 水池 sc2 is emptying at 3.45 m
    17:13:01: 水池 sc3 is filling at 3.28 m
    17:13:01: Pipe gd2 变化从 open 到 temporarily closed
    17:13:01: Pipe gd3 变化从 temporarily closed 到 open
   
    17:13:09: 平衡， 在 32 试算之后
    17:13:09: 水库 sk1 is closed
    17:13:09: 水池 sc1 is emptying at 3.45 m
    17:13:09: Pipe gd1 变化从 open 到 temporarily closed
    17:13:09: Pipe gd2 变化从 temporarily closed 到 open
   
    17:13:44: 平衡， 在 29 试算之后
    17:13:44: 水库 sk1 is emptying
    17:13:44: 水池 sc1 is filling at 3.43 m
    17:13:44: 水池 sc2 is filling at 3.43 m
    17:13:44: 水池 sc3 is emptying at 3.30 m
    17:13:44: Pipe gd1 变化从 temporarily closed 到 open
    17:13:44: Pipe gd3 变化从 open 到 temporarily closed
   
    17:14:22: 平衡， 在 32 试算之后
    17:14:22: 水池 sc2 is emptying at 3.45 m
    17:14:22: 水池 sc3 is filling at 3.28 m
    17:14:22: Pipe gd2 变化从 open 到 temporarily closed
    17:14:22: Pipe gd3 变化从 temporarily closed 到 open
   
    17:14:36: 平衡， 在 32 试算之后
    17:14:36: 水库 sk1 is closed
    17:14:36: 水池 sc1 is emptying at 3.45 m
    17:14:36: Pipe gd1 变化从 open 到 temporarily closed
    17:14:36: Pipe gd2 变化从 temporarily closed 到 open
   
    17:15:01: 平衡， 在 29 试算之后
    17:15:01: 水库 sk1 is emptying
    17:15:01: 水池 sc1 is filling at 3.44 m
    17:15:01: 水池 sc2 is filling at 3.43 m
    17:15:01: 水池 sc3 is emptying at 3.30 m
    17:15:01: Pipe gd1 变化从 temporarily closed 到 open
    17:15:01: Pipe gd3 变化从 open 到 temporarily closed
   
    17:15:42: 平衡， 在 32 试算之后
    17:15:42: 水池 sc2 is emptying at 3.45 m
    17:15:42: 水池 sc3 is filling at 3.28 m
    17:15:42: Pipe gd2 变化从 open 到 temporarily closed
    17:15:42: Pipe gd3 变化从 temporarily closed 到 open
   
    17:15:48: 平衡， 在 32 试算之后
    17:15:48: 水库 sk1 is closed
    17:15:48: 水池 sc1 is emptying at 3.45 m
    17:15:48: Pipe gd1 变化从 open 到 temporarily closed
    17:15:48: Pipe gd2 变化从 temporarily closed 到 open
   
    17:16:24: 平衡， 在 29 试算之后
    17:16:24: 水库 sk1 is emptying
    17:16:24: 水池 sc1 is filling at 3.43 m
    17:16:24: 水池 sc2 is filling at 3.43 m
    17:16:24: 水池 sc3 is emptying at 3.30 m
    17:16:24: Pipe gd1 变化从 temporarily closed 到 open
    17:16:24: Pipe gd3 变化从 open 到 temporarily closed
   
    17:16:59: 平衡， 在 32 试算之后
    17:16:59: 水池 sc2 is emptying at 3.45 m
    17:16:59: 水池 sc3 is filling at 3.28 m
    17:16:59: Pipe gd2 变化从 open 到 temporarily closed
    17:16:59: Pipe gd3 变化从 temporarily closed 到 open
   
    17:17:14: 平衡， 在 32 试算之后
    17:17:14: 水库 sk1 is closed
    17:17:14: 水池 sc1 is emptying at 3.45 m
    17:17:14: Pipe gd1 变化从 open 到 temporarily closed
    17:17:14: Pipe gd2 变化从 temporarily closed 到 open
   
    17:17:35: 平衡， 在 29 试算之后
    17:17:35: 水库 sk1 is emptying
    17:17:35: 水池 sc1 is filling at 3.44 m
    17:17:35: 水池 sc2 is filling at 3.43 m
    17:17:35: 水池 sc3 is emptying at 3.30 m
    17:17:35: Pipe gd1 变化从 temporarily closed 到 open
    17:17:35: Pipe gd3 变化从 open 到 temporarily closed
   
    17:18:15: 平衡， 在 32 试算之后
    17:18:15: 水池 sc2 is emptying at 3.45 m
    17:18:15: 水池 sc3 is filling at 3.28 m
    17:18:15: Pipe gd2 变化从 open 到 temporarily closed
    17:18:15: Pipe gd3 变化从 temporarily closed 到 open
   
    17:18:18: 平衡， 在 32 试算之后
    17:18:18: 水库 sk1 is closed
    17:18:18: 水池 sc1 is emptying at 3.45 m
    17:18:18: Pipe gd1 变化从 open 到 temporarily closed
    17:18:18: Pipe gd2 变化从 temporarily closed 到 open
   
    17:18:56: 平衡， 在 29 试算之后
    17:18:56: 水库 sk1 is emptying
    17:18:56: 水池 sc1 is filling at 3.43 m
    17:18:56: 水池 sc2 is filling at 3.43 m
    17:18:56: 水池 sc3 is emptying at 3.30 m
    17:18:56: Pipe gd1 变化从 temporarily closed 到 open
    17:18:56: Pipe gd3 变化从 open 到 temporarily closed
   
    17:19:28: 平衡， 在 32 试算之后
    17:19:28: 水池 sc2 is emptying at 3.45 m
    17:19:28: 水池 sc3 is filling at 3.29 m
    17:19:28: Pipe gd2 变化从 open 到 temporarily closed
    17:19:28: Pipe gd3 变化从 temporarily closed 到 open
   
    17:19:46: 平衡， 在 32 试算之后
    17:19:46: 水库 sk1 is closed
    17:19:46: 水池 sc1 is emptying at 3.45 m
    17:19:46: Pipe gd1 变化从 open 到 temporarily closed
    17:19:46: Pipe gd2 变化从 temporarily closed 到 open
   
    17:20:01: 平衡， 在 29 试算之后
    17:20:01: 水库 sk1 is emptying
    17:20:01: 水池 sc1 is filling at 3.44 m
    17:20:01: 水池 sc2 is filling at 3.43 m
    17:20:01: 水池 sc3 is emptying at 3.30 m
    17:20:01: Pipe gd1 变化从 temporarily closed 到 open
    17:20:01: Pipe gd3 变化从 open 到 temporarily closed
   
    17:20:37: 平衡， 在 32 试算之后
    17:20:37: 水库 sk1 is closed
    17:20:37: 水池 sc1 is emptying at 3.45 m
    17:20:37: 水池 sc2 is emptying at 3.45 m
    17:20:37: 水池 sc3 is filling at 3.28 m
    17:20:37: Pipe gd1 变化从 open 到 temporarily closed
    17:20:37: Pipe gd3 变化从 temporarily closed 到 open
   
    17:21:14: 平衡， 在 29 试算之后
    17:21:14: 水库 sk1 is emptying
    17:21:14: 水池 sc1 is filling at 3.43 m
    17:21:14: 水池 sc2 is filling at 3.43 m
    17:21:14: 水池 sc3 is emptying at 3.30 m
    17:21:14: Pipe gd1 变化从 temporarily closed 到 open
    17:21:14: Pipe gd3 变化从 open 到 temporarily closed
   
    17:21:45: 平衡， 在 32 试算之后
    17:21:45: 水池 sc2 is emptying at 3.45 m
    17:21:45: 水池 sc3 is filling at 3.29 m
    17:21:45: Pipe gd2 变化从 open 到 temporarily closed
    17:21:45: Pipe gd3 变化从 temporarily closed 到 open
   
    17:22:02: 平衡， 在 32 试算之后
    17:22:02: 水库 sk1 is closed
    17:22:02: 水池 sc1 is emptying at 3.45 m
    17:22:02: Pipe gd1 变化从 open 到 temporarily closed
    17:22:02: Pipe gd2 变化从 temporarily closed 到 open
   
    17:22:17: 平衡， 在 29 试算之后
    17:22:17: 水库 sk1 is emptying
    17:22:17: 水池 sc1 is filling at 3.44 m
    17:22:17: 水池 sc2 is filling at 3.43 m
    17:22:17: 水池 sc3 is emptying at 3.30 m
    17:22:17: Pipe gd1 变化从 temporarily closed 到 open
    17:22:17: Pipe gd3 变化从 open 到 temporarily closed
   
    17:22:53: 平衡， 在 32 试算之后
    17:22:53: 水库 sk1 is closed
    17:22:53: 水池 sc1 is emptying at 3.45 m
    17:22:53: 水池 sc2 is emptying at 3.45 m
    17:22:53: 水池 sc3 is filling at 3.28 m
    17:22:53: Pipe gd1 变化从 open 到 temporarily closed
    17:22:53: Pipe gd3 变化从 temporarily closed 到 open
   
    17:23:30: 平衡， 在 29 试算之后
    17:23:30: 水库 sk1 is emptying
    17:23:30: 水池 sc1 is filling at 3.43 m
    17:23:30: 水池 sc2 is filling at 3.43 m
    17:23:30: 水池 sc3 is emptying at 3.30 m
    17:23:30: Pipe gd1 变化从 temporarily closed 到 open
    17:23:30: Pipe gd3 变化从 open 到 temporarily closed
   
    17:23:59: 平衡， 在 32 试算之后
    17:23:59: 水池 sc2 is emptying at 3.45 m
    17:23:59: 水池 sc3 is filling at 3.29 m
    17:23:59: Pipe gd2 变化从 open 到 temporarily closed
    17:23:59: Pipe gd3 变化从 temporarily closed 到 open
   
    17:24:17: 平衡， 在 32 试算之后
    17:24:17: 水库 sk1 is closed
    17:24:17: 水池 sc1 is emptying at 3.45 m
    17:24:17: Pipe gd1 变化从 open 到 temporarily closed
    17:24:17: Pipe gd2 变化从 temporarily closed 到 open
   
    17:24:29: 平衡， 在 29 试算之后
    17:24:29: 水库 sk1 is emptying
    17:24:29: 水池 sc1 is filling at 3.44 m
    17:24:29: 水池 sc2 is filling at 3.43 m
    17:24:29: 水池 sc3 is emptying at 3.30 m
    17:24:29: Pipe gd1 变化从 temporarily closed 到 open
    17:24:29: Pipe gd3 变化从 open 到 temporarily closed
   
    17:24:58: 平衡， 在 32 试算之后
    17:24:58: 水库 sk1 is closed
    17:24:58: 水池 sc1 is emptying at 3.45 m
    17:24:58: 水池 sc2 is emptying at 3.44 m
    17:24:58: 水池 sc3 is filling at 3.29 m
    17:24:58: Pipe gd1 变化从 open 到 temporarily closed
    17:24:58: Pipe gd3 变化从 temporarily closed 到 open
   
    17:25:28: 平衡， 在 29 试算之后
    17:25:28: 水库 sk1 is emptying
    17:25:28: 水池 sc1 is filling at 3.43 m
    17:25:28: 水池 sc2 is filling at 3.43 m
    17:25:28: 水池 sc3 is emptying at 3.30 m
    17:25:28: Pipe gd1 变化从 temporarily closed 到 open
    17:25:28: Pipe gd3 变化从 open 到 temporarily closed
   
    17:25:59: 平衡， 在 32 试算之后
    17:25:59: 水池 sc2 is emptying at 3.45 m
    17:25:59: 水池 sc3 is filling at 3.29 m
    17:25:59: Pipe gd2 变化从 open 到 temporarily closed
    17:25:59: Pipe gd3 变化从 temporarily closed 到 open
   
    17:26:11: 平衡， 在 32 试算之后
    17:26:11: 水库 sk1 is closed
    17:26:11: 水池 sc1 is emptying at 3.45 m
    17:26:11: Pipe gd1 变化从 open 到 temporarily closed
    17:26:11: Pipe gd2 变化从 temporarily closed 到 open
   
    17:26:31: 平衡， 在 29 试算之后
    17:26:31: 水库 sk1 is emptying
    17:26:31: 水池 sc1 is filling at 3.44 m
    17:26:31: 水池 sc2 is filling at 3.43 m
    17:26:31: 水池 sc3 is emptying at 3.30 m
    17:26:31: Pipe gd1 变化从 temporarily closed 到 open
    17:26:31: Pipe gd3 变化从 open 到 temporarily closed
   
    17:27:05: 平衡， 在 32 试算之后
    17:27:05: 水池 sc2 is emptying at 3.45 m
    17:27:05: 水池 sc3 is filling at 3.28 m
    17:27:05: Pipe gd2 变化从 open 到 temporarily closed
    17:27:05: Pipe gd3 变化从 temporarily closed 到 open
   
    17:27:09: 平衡， 在 32 试算之后
    17:27:09: 水库 sk1 is closed
    17:27:09: 水池 sc1 is emptying at 3.45 m
    17:27:09: Pipe gd1 变化从 open 到 temporarily closed
    17:27:09: Pipe gd2 变化从 temporarily closed 到 open
   
    17:27:40: 平衡， 在 29 试算之后
    17:27:40: 水库 sk1 is emptying
    17:27:40: 水池 sc1 is filling at 3.43 m
    17:27:40: 水池 sc2 is filling at 3.43 m
    17:27:40: 水池 sc3 is emptying at 3.30 m
    17:27:40: Pipe gd1 变化从 temporarily closed 到 open
    17:27:40: Pipe gd3 变化从 open 到 temporarily closed
   
    17:28:08: 平衡， 在 32 试算之后
    17:28:08: 水池 sc2 is emptying at 3.45 m
    17:28:08: 水池 sc3 is filling at 3.29 m
    17:28:08: Pipe gd2 变化从 open 到 temporarily closed
    17:28:08: Pipe gd3 变化从 temporarily closed 到 open
   
    17:28:22: 平衡， 在 32 试算之后
    17:28:22: 水库 sk1 is closed
    17:28:22: 水池 sc1 is emptying at 3.45 m
    17:28:22: Pipe gd1 变化从 open 到 temporarily closed
    17:28:22: Pipe gd2 变化从 temporarily closed 到 open
   
    17:28:36: 平衡， 在 29 试算之后
    17:28:36: 水库 sk1 is emptying
    17:28:36: 水池 sc1 is filling at 3.44 m
    17:28:36: 水池 sc2 is filling at 3.43 m
    17:28:36: 水池 sc3 is emptying at 3.30 m
    17:28:36: Pipe gd1 变化从 temporarily closed 到 open
    17:28:36: Pipe gd3 变化从 open 到 temporarily closed
   
    17:29:10: 平衡， 在 32 试算之后
    17:29:10: 水库 sk1 is closed
    17:29:10: 水池 sc1 is closed at 3.45 m
    17:29:10: 水池 sc2 is emptying at 3.45 m
    17:29:10: 水池 sc3 is filling at 3.28 m
    17:29:10: Pipe gd1 变化从 open 到 temporarily closed
    17:29:10: Pipe gd2 变化从 open 到 temporarily closed
    17:29:10: Pipe gd3 变化从 temporarily closed 到 open
   
    17:29:45: 平衡， 在 32 试算之后
    17:29:45: 水池 sc1 is emptying at 3.45 m
    17:29:45: 水池 sc2 is filling at 3.42 m
    17:29:45: 水池 sc3 is emptying at 3.30 m
    17:29:45: Pipe gd2 变化从 temporarily closed 到 open
    17:29:45: Pipe gd3 变化从 open 到 temporarily closed
   
    17:30:45: 平衡， 在 33 试算之后
    17:30:45: 水库 sk1 is emptying
    17:30:45: 水池 sc1 is filling at 3.42 m
    17:30:45: 水池 sc2 is emptying at 3.45 m
    17:30:45: 水池 sc3 is filling at 3.27 m
    17:30:45: Pipe gd1 变化从 temporarily closed 到 open
    17:30:45: Pipe gd2 变化从 open 到 temporarily closed
    17:30:45: Pipe gd3 变化从 temporarily closed 到 open
   
    17:31:27: 平衡， 在 32 试算之后
    17:31:27: 水库 sk1 is closed
    17:31:27: 水池 sc1 is emptying at 3.45 m
    17:31:27: Pipe gd1 变化从 open 到 temporarily closed
    17:31:27: Pipe gd2 变化从 temporarily closed 到 open
   
    17:31:46: 平衡， 在 29 试算之后
    17:31:46: 水库 sk1 is emptying
    17:31:46: 水池 sc1 is filling at 3.44 m
    17:31:46: 水池 sc2 is filling at 3.40 m
    17:31:46: 水池 sc3 is emptying at 3.30 m
    17:31:46: Pipe gd1 变化从 temporarily closed 到 open
    17:31:46: Pipe gd3 变化从 open 到 temporarily closed
   
    17:32:32: 平衡， 在 32 试算之后
    17:32:32: 水库 sk1 is closed
    17:32:32: 水池 sc1 is emptying at 3.45 m
    17:32:32: 水池 sc2 is emptying at 3.43 m
    17:32:32: 水池 sc3 is filling at 3.28 m
    17:32:32: Pipe gd1 变化从 open 到 temporarily closed
    17:32:32: Pipe gd3 变化从 temporarily closed 到 open
   
    17:33:19: 平衡， 在 29 试算之后
    17:33:19: 水库 sk1 is emptying
    17:33:19: 水池 sc1 is filling at 3.43 m
    17:33:19: 水池 sc2 is filling at 3.41 m
    17:33:19: 水池 sc3 is emptying at 3.30 m
    17:33:19: Pipe gd1 变化从 temporarily closed 到 open
    17:33:19: Pipe gd3 变化从 open 到 temporarily closed
   
    17:34:31: 平衡， 在 32 试算之后
    17:34:31: 水池 sc2 is emptying at 3.45 m
    17:34:31: 水池 sc3 is filling at 3.27 m
    17:34:31: Pipe gd2 变化从 open 到 temporarily closed
    17:34:31: Pipe gd3 变化从 temporarily closed 到 open
   
    17:34:43: 平衡， 在 32 试算之后
    17:34:43: 水库 sk1 is closed
    17:34:43: 水池 sc1 is emptying at 3.45 m
    17:34:43: Pipe gd1 变化从 open 到 temporarily closed
    17:34:43: Pipe gd2 变化从 temporarily closed 到 open
   
    17:35:44: 平衡， 在 29 试算之后
    17:35:44: 水库 sk1 is emptying
    17:35:44: 水池 sc1 is filling at 3.42 m
    17:35:44: 水池 sc2 is filling at 3.42 m
    17:35:44: 水池 sc3 is emptying at 3.30 m
    17:35:44: Pipe gd1 变化从 temporarily closed 到 open
    17:35:44: Pipe gd3 变化从 open 到 temporarily closed
   
    17:36:47: 平衡， 在 32 试算之后
    17:36:47: 水池 sc2 is emptying at 3.45 m
    17:36:47: 水池 sc3 is filling at 3.27 m
    17:36:47: Pipe gd2 变化从 open 到 temporarily closed
    17:36:47: Pipe gd3 变化从 temporarily closed 到 open
   
    17:37:12: 平衡， 在 32 试算之后
    17:37:12: 水库 sk1 is closed
    17:37:12: 水池 sc1 is emptying at 3.45 m
    17:37:12: Pipe gd1 变化从 open 到 temporarily closed
    17:37:12: Pipe gd2 变化从 temporarily closed 到 open
   
    17:37:51: 平衡， 在 29 试算之后
    17:37:51: 水库 sk1 is emptying
    17:37:51: 水池 sc1 is filling at 3.43 m
    17:37:51: 水池 sc2 is filling at 3.41 m
    17:37:51: 水池 sc3 is emptying at 3.30 m
    17:37:51: Pipe gd1 变化从 temporarily closed 到 open
    17:37:51: Pipe gd3 变化从 open 到 temporarily closed
   
    17:39:01: 平衡， 在 32 试算之后
    17:39:01: 水池 sc2 is emptying at 3.45 m
    17:39:01: 水池 sc3 is filling at 3.27 m
    17:39:01: Pipe gd2 变化从 open 到 temporarily closed
    17:39:01: Pipe gd3 变化从 temporarily closed 到 open
   
    17:39:08: 平衡， 在 32 试算之后
    17:39:08: 水库 sk1 is closed
    17:39:08: 水池 sc1 is emptying at 3.45 m
    17:39:08: Pipe gd1 变化从 open 到 temporarily closed
    17:39:08: Pipe gd2 变化从 temporarily closed 到 open
   
    17:40:12: 平衡， 在 29 试算之后
    17:40:12: 水库 sk1 is emptying
    17:40:12: 水池 sc1 is filling at 3.42 m
    17:40:12: 水池 sc2 is filling at 3.42 m
    17:40:12: 水池 sc3 is emptying at 3.30 m
    17:40:12: Pipe gd1 变化从 temporarily closed 到 open
    17:40:12: Pipe gd3 变化从 open 到 temporarily closed
   
    17:41:09: 平衡， 在 32 试算之后
    17:41:09: 水池 sc2 is emptying at 3.45 m
    17:41:09: 水池 sc3 is filling at 3.27 m
    17:41:09: Pipe gd2 变化从 open 到 temporarily closed
    17:41:09: Pipe gd3 变化从 temporarily closed 到 open
   
    17:41:38: 平衡， 在 32 试算之后
    17:41:38: 水库 sk1 is closed
    17:41:38: 水池 sc1 is emptying at 3.45 m
    17:41:38: Pipe gd1 变化从 open 到 temporarily closed
    17:41:38: Pipe gd2 变化从 temporarily closed 到 open
   
    17:42:07: 平衡， 在 29 试算之后
    17:42:07: 水库 sk1 is emptying
    17:42:07: 水池 sc1 is filling at 3.43 m
    17:42:07: 水池 sc2 is filling at 3.41 m
    17:42:07: 水池 sc3 is emptying at 3.30 m
    17:42:07: Pipe gd1 变化从 temporarily closed 到 open
    17:42:07: Pipe gd3 变化从 open 到 temporarily closed
   
    17:43:17: 平衡， 在 32 试算之后
    17:43:17: 水库 sk1 is closed
    17:43:17: 水池 sc1 is closed at 3.45 m
    17:43:17: 水池 sc2 is emptying at 3.45 m
    17:43:17: 水池 sc3 is filling at 3.27 m
    17:43:17: Pipe gd1 变化从 open 到 temporarily closed
    17:43:17: Pipe gd2 变化从 open 到 temporarily closed
    17:43:17: Pipe gd3 变化从 temporarily closed 到 open
   
    17:44:28: 平衡， 在 32 试算之后
    17:44:28: 水池 sc1 is emptying at 3.45 m
    17:44:28: 水池 sc2 is filling at 3.38 m
    17:44:28: 水池 sc3 is emptying at 3.30 m
    17:44:28: Pipe gd2 变化从 temporarily closed 到 open
    17:44:28: Pipe gd3 变化从 open 到 temporarily closed
   
    17:46:29: 平衡， 在 33 试算之后
    17:46:29: 水库 sk1 is emptying
    17:46:29: 水池 sc1 is filling at 3.39 m
    17:46:29: 水池 sc2 is emptying at 3.45 m
    17:46:29: 水池 sc3 is filling at 3.24 m
    17:46:29: Pipe gd1 变化从 temporarily closed 到 open
    17:46:29: Pipe gd2 变化从 open 到 temporarily closed
    17:46:29: Pipe gd3 变化从 temporarily closed 到 open
   
    17:47:55: 平衡， 在 32 试算之后
    17:47:55: 水库 sk1 is closed
    17:47:55: 水池 sc1 is emptying at 3.45 m
    17:47:55: Pipe gd1 变化从 open 到 temporarily closed
    17:47:55: Pipe gd2 变化从 temporarily closed 到 open
   
    17:48:32: 平衡， 在 29 试算之后
    17:48:32: 水库 sk1 is emptying
    17:48:32: 水池 sc1 is filling at 3.43 m
    17:48:32: 水池 sc2 is filling at 3.36 m
    17:48:32: 水池 sc3 is emptying at 3.30 m
    17:48:32: Pipe gd1 变化从 temporarily closed 到 open
    17:48:32: Pipe gd3 变化从 open 到 temporarily closed
   
    17:50:02: 平衡， 在 32 试算之后
    17:50:02: 水库 sk1 is closed
    17:50:02: 水池 sc1 is emptying at 3.45 m
    17:50:02: 水池 sc2 is emptying at 3.41 m
    17:50:02: 水池 sc3 is filling at 3.26 m
    17:50:02: Pipe gd1 变化从 open 到 temporarily closed
    17:50:02: Pipe gd3 变化从 temporarily closed 到 open
   
    17:51:34: 平衡， 在 29 试算之后
    17:51:34: 水库 sk1 is emptying
    17:51:34: 水池 sc1 is filling at 3.40 m
    17:51:34: 水池 sc2 is filling at 3.37 m
    17:51:34: 水池 sc3 is emptying at 3.30 m
    17:51:34: Pipe gd1 变化从 temporarily closed 到 open
    17:51:34: Pipe gd3 变化从 open 到 temporarily closed
   
    17:54:00: 平衡， 在 32 试算之后
    17:54:00: 水池 sc2 is emptying at 3.45 m
    17:54:00: 水池 sc3 is filling at 3.23 m
    17:54:00: Pipe gd2 变化从 open 到 temporarily closed
    17:54:00: Pipe gd3 变化从 temporarily closed 到 open
   
    17:54:22: 平衡， 在 32 试算之后
    17:54:22: 水库 sk1 is closed
    17:54:22: 水池 sc1 is emptying at 3.45 m
    17:54:22: Pipe gd1 变化从 open 到 temporarily closed
    17:54:22: Pipe gd2 变化从 temporarily closed 到 open
   
    17:56:28: 平衡， 在 29 试算之后
    17:56:28: 水库 sk1 is emptying
    17:56:28: 水池 sc1 is filling at 3.38 m
    17:56:28: 水池 sc2 is filling at 3.38 m
    17:56:28: 水池 sc3 is emptying at 3.30 m
    17:56:28: Pipe gd1 变化从 temporarily closed 到 open
    17:56:28: Pipe gd3 变化从 open 到 temporarily closed
   
    17:58:34: 平衡， 在 32 试算之后
    17:58:34: 水池 sc2 is emptying at 3.45 m
    17:58:34: 水池 sc3 is filling at 3.24 m
    17:58:34: Pipe gd2 变化从 open 到 temporarily closed
    17:58:34: Pipe gd3 变化从 temporarily closed 到 open
   
    17:59:26: 平衡， 在 32 试算之后
    17:59:26: 水库 sk1 is closed
    17:59:26: 水池 sc1 is emptying at 3.45 m
    17:59:26: Pipe gd1 变化从 open 到 temporarily closed
    17:59:26: Pipe gd2 变化从 temporarily closed 到 open
   
    18:00:00: 平衡， 在 29 试算之后
    18:00:00: 水库 sk1 is emptying
    18:00:00: 水池 sc1 is filling at 3.43 m
    18:00:00: Pipe gd1 变化从 temporarily closed 到 open
   
    18:00:42: 平衡， 在 3 试算之后
    18:00:42: 水池 sc2 is filling at 3.37 m
    18:00:42: 水池 sc3 is emptying at 3.30 m
    18:00:42: Pipe gd3 变化从 open 到 temporarily closed
   
    18:01:23: 平衡， 在 32 试算之后
    18:01:23: 水库 sk1 is closed
    18:01:23: 水池 sc1 is emptying at 3.45 m
    18:01:23: 水池 sc2 is emptying at 3.40 m
    18:01:23: 水池 sc3 is filling at 3.28 m
    18:01:23: Pipe gd1 变化从 open 到 temporarily closed
    18:01:23: Pipe gd3 变化从 temporarily closed 到 open
   
    18:02:05: 平衡， 在 29 试算之后
    18:02:05: 水库 sk1 is emptying
    18:02:05: 水池 sc1 is filling at 3.43 m
    18:02:05: 水池 sc2 is filling at 3.38 m
    18:02:05: 水池 sc3 is emptying at 3.30 m
    18:02:05: Pipe gd1 变化从 temporarily closed 到 open
    18:02:05: Pipe gd3 变化从 open 到 temporarily closed
   
    18:03:47: 平衡， 在 32 试算之后
    18:03:47: 水库 sk1 is closed
    18:03:47: 水池 sc1 is emptying at 3.45 m
    18:03:47: 水池 sc2 is emptying at 3.43 m
    18:03:47: 水池 sc3 is filling at 3.25 m
    18:03:47: Pipe gd1 变化从 open 到 temporarily closed
    18:03:47: Pipe gd3 变化从 temporarily closed 到 open
   
    18:05:31: 平衡， 在 29 试算之后
    18:05:31: 水库 sk1 is emptying
    18:05:31: 水池 sc1 is filling at 3.39 m
    18:05:31: 水池 sc2 is filling at 3.40 m
    18:05:31: 水池 sc3 is emptying at 3.30 m
    18:05:31: Pipe gd1 变化从 temporarily closed 到 open
    18:05:31: Pipe gd3 变化从 open 到 temporarily closed
   
    18:07:11: 平衡， 在 32 试算之后
    18:07:11: 水池 sc2 is emptying at 3.45 m
    18:07:11: 水池 sc3 is filling at 3.25 m
    18:07:11: Pipe gd2 变化从 open 到 temporarily closed
    18:07:11: Pipe gd3 变化从 temporarily closed 到 open
   
    18:07:55: 平衡， 在 32 试算之后
    18:07:55: 水库 sk1 is closed
    18:07:55: 水池 sc1 is emptying at 3.45 m
    18:07:55: Pipe gd1 变化从 open 到 temporarily closed
    18:07:55: Pipe gd2 变化从 temporarily closed 到 open
   
    18:08:53: 平衡， 在 29 试算之后
    18:08:53: 水库 sk1 is emptying
    18:08:53: 水池 sc1 is filling at 3.42 m
    18:08:53: 水池 sc2 is filling at 3.39 m
    18:08:53: 水池 sc3 is emptying at 3.30 m
    18:08:53: Pipe gd1 变化从 temporarily closed 到 open
    18:08:53: Pipe gd3 变化从 open 到 temporarily closed
   
    18:10:48: 平衡， 在 32 试算之后
    18:10:48: 水池 sc2 is emptying at 3.45 m
    18:10:48: 水池 sc3 is filling at 3.25 m
    18:10:48: Pipe gd2 变化从 open 到 temporarily closed
    18:10:48: Pipe gd3 变化从 temporarily closed 到 open
   
    18:10:55: 平衡， 在 32 试算之后
    18:10:55: 水库 sk1 is closed
    18:10:55: 水池 sc1 is emptying at 3.45 m
    18:10:55: Pipe gd1 变化从 open 到 temporarily closed
    18:10:55: Pipe gd2 变化从 temporarily closed 到 open
   
    18:12:45: 平衡， 在 29 试算之后
    18:12:45: 水库 sk1 is emptying
    18:12:45: 水池 sc1 is filling at 3.39 m
    18:12:45: 水池 sc2 is filling at 3.40 m
    18:12:45: 水池 sc3 is emptying at 3.30 m
    18:12:45: Pipe gd1 变化从 temporarily closed 到 open
    18:12:45: Pipe gd3 变化从 open 到 temporarily closed
   
    18:14:14: 平衡， 在 32 试算之后
    18:14:14: 水池 sc2 is emptying at 3.45 m
    18:14:14: 水池 sc3 is filling at 3.26 m
    18:14:14: Pipe gd2 变化从 open 到 temporarily closed
    18:14:14: Pipe gd3 变化从 temporarily closed 到 open
   
    18:15:06: 平衡， 在 32 试算之后
    18:15:06: 水库 sk1 is closed
    18:15:06: 水池 sc1 is emptying at 3.45 m
    18:15:06: Pipe gd1 变化从 open 到 temporarily closed
    18:15:06: Pipe gd2 变化从 temporarily closed 到 open
   
    18:15:45: 平衡， 在 29 试算之后
    18:15:45: 水库 sk1 is emptying
    18:15:45: 水池 sc1 is filling at 3.43 m
    18:15:45: 水池 sc2 is filling at 3.39 m
    18:15:45: 水池 sc3 is emptying at 3.30 m
    18:15:45: Pipe gd1 变化从 temporarily closed 到 open
    18:15:45: Pipe gd3 变化从 open 到 temporarily closed
   
    18:17:20: 平衡， 在 32 试算之后
    18:17:20: 水库 sk1 is closed
    18:17:20: 水池 sc1 is emptying at 3.45 m
    18:17:20: 水池 sc2 is emptying at 3.44 m
    18:17:20: 水池 sc3 is filling at 3.26 m
    18:17:20: Pipe gd1 变化从 open 到 temporarily closed
    18:17:20: Pipe gd3 变化从 temporarily closed 到 open
   
    18:18:57: 平衡， 在 29 试算之后
    18:18:57: 水库 sk1 is emptying
    18:18:57: 水池 sc1 is filling at 3.40 m
    18:18:57: 水池 sc2 is filling at 3.40 m
    18:18:57: 水池 sc3 is emptying at 3.30 m
    18:18:57: Pipe gd1 变化从 temporarily closed 到 open
    18:18:57: Pipe gd3 变化从 open 到 temporarily closed
   
    18:20:26: 平衡， 在 32 试算之后
    18:20:26: 水池 sc2 is emptying at 3.45 m
    18:20:26: 水池 sc3 is filling at 3.26 m
    18:20:26: Pipe gd2 变化从 open 到 temporarily closed
    18:20:26: Pipe gd3 变化从 temporarily closed 到 open
   
    18:21:09: 平衡， 在 32 试算之后
    18:21:09: 水库 sk1 is closed
    18:21:09: 水池 sc1 is emptying at 3.45 m
    18:21:09: Pipe gd1 变化从 open 到 temporarily closed
    18:21:09: Pipe gd2 变化从 temporarily closed 到 open
   
    18:21:57: 平衡， 在 29 试算之后
    18:21:57: 水库 sk1 is emptying
    18:21:57: 水池 sc1 is filling at 3.42 m
    18:21:57: 水池 sc2 is filling at 3.39 m
    18:21:57: 水池 sc3 is emptying at 3.30 m
    18:21:57: Pipe gd1 变化从 temporarily closed 到 open
    18:21:57: Pipe gd3 变化从 open 到 temporarily closed
   
    18:23:44: 平衡， 在 32 试算之后
    18:23:44: 水池 sc2 is emptying at 3.45 m
    18:23:44: 水池 sc3 is filling at 3.25 m
    18:23:44: Pipe gd2 变化从 open 到 temporarily closed
    18:23:44: Pipe gd3 变化从 temporarily closed 到 open
   
    18:23:47: 平衡， 在 32 试算之后
    18:23:47: 水库 sk1 is closed
    18:23:47: 水池 sc1 is emptying at 3.45 m
    18:23:47: Pipe gd1 变化从 open 到 temporarily closed
    18:23:47: Pipe gd2 变化从 temporarily closed 到 open
   
    18:25:33: 平衡， 在 29 试算之后
    18:25:33: 水库 sk1 is emptying
    18:25:33: 水池 sc1 is filling at 3.39 m
    18:25:33: 水池 sc2 is filling at 3.41 m
    18:25:33: 水池 sc3 is emptying at 3.30 m
    18:25:33: Pipe gd1 变化从 temporarily closed 到 open
    18:25:33: Pipe gd3 变化从 open 到 temporarily closed
   
    18:26:52: 平衡， 在 32 试算之后
    18:26:52: 水池 sc2 is emptying at 3.45 m
    18:26:52: 水池 sc3 is filling at 3.26 m
    18:26:52: Pipe gd2 变化从 open 到 temporarily closed
    18:26:52: Pipe gd3 变化从 temporarily closed 到 open
   
    18:27:44: 平衡， 在 32 试算之后
    18:27:44: 水库 sk1 is closed
    18:27:44: 水池 sc1 is emptying at 3.45 m
    18:27:44: Pipe gd1 变化从 open 到 temporarily closed
    18:27:44: Pipe gd2 变化从 temporarily closed 到 open
   
    18:28:12: 平衡， 在 29 试算之后
    18:28:12: 水库 sk1 is emptying
    18:28:12: 水池 sc1 is filling at 3.44 m
    18:28:12: 水池 sc2 is filling at 3.39 m
    18:28:12: 水池 sc3 is emptying at 3.30 m
    18:28:12: Pipe gd1 变化从 temporarily closed 到 open
    18:28:12: Pipe gd3 变化从 open 到 temporarily closed
   
    18:29:20: 平衡， 在 32 试算之后
    18:29:20: 水库 sk1 is closed
    18:29:20: 水池 sc1 is emptying at 3.45 m
    18:29:20: 水池 sc2 is emptying at 3.43 m
    18:29:20: 水池 sc3 is filling at 3.27 m
    18:29:20: Pipe gd1 变化从 open 到 temporarily closed
    18:29:20: Pipe gd3 变化从 temporarily closed 到 open
   
    18:30:29: 平衡， 在 29 试算之后
    18:30:29: 水库 sk1 is emptying
    18:30:29: 水池 sc1 is filling at 3.41 m
    18:30:29: 水池 sc2 is filling at 3.40 m
    18:30:29: 水池 sc3 is emptying at 3.30 m
    18:30:29: Pipe gd1 变化从 temporarily closed 到 open
    18:30:29: Pipe gd3 变化从 open 到 temporarily closed
   
    18:31:57: 平衡， 在 32 试算之后
    18:31:57: 水池 sc2 is emptying at 3.45 m
    18:31:57: 水池 sc3 is filling at 3.26 m
    18:31:57: Pipe gd2 变化从 open 到 temporarily closed
    18:31:57: Pipe gd3 变化从 temporarily closed 到 open
   
    18:32:20: 平衡， 在 32 试算之后
    18:32:20: 水库 sk1 is closed
    18:32:20: 水池 sc1 is emptying at 3.45 m
    18:32:20: Pipe gd1 变化从 open 到 temporarily closed
    18:32:20: Pipe gd2 变化从 temporarily closed 到 open
   
    18:33:26: 平衡， 在 29 试算之后
    18:33:26: 水库 sk1 is emptying
    18:33:26: 水池 sc1 is filling at 3.42 m
    18:33:26: 水池 sc2 is filling at 3.40 m
    18:33:26: 水池 sc3 is emptying at 3.30 m
    18:33:26: Pipe gd1 变化从 temporarily closed 到 open
    18:33:26: Pipe gd3 变化从 open 到 temporarily closed
   
    18:34:51: 平衡， 在 32 试算之后
    18:34:51: 水池 sc2 is emptying at 3.45 m
    18:34:51: 水池 sc3 is filling at 3.26 m
    18:34:51: Pipe gd2 变化从 open 到 temporarily closed
    18:34:51: Pipe gd3 变化从 temporarily closed 到 open
   
    18:35:13: 平衡， 在 32 试算之后
    18:35:13: 水库 sk1 is closed
    18:35:13: 水池 sc1 is emptying at 3.45 m
    18:35:13: Pipe gd1 变化从 open 到 temporarily closed
    18:35:13: Pipe gd2 变化从 temporarily closed 到 open
   
    18:36:17: 平衡， 在 29 试算之后
    18:36:17: 水库 sk1 is emptying
    18:36:17: 水池 sc1 is filling at 3.42 m
    18:36:17: 水池 sc2 is filling at 3.41 m
    18:36:17: 水池 sc3 is emptying at 3.30 m
    18:36:17: Pipe gd1 变化从 temporarily closed 到 open
    18:36:17: Pipe gd3 变化从 open 到 temporarily closed
   
    18:37:39: 平衡， 在 32 试算之后
    18:37:39: 水池 sc2 is emptying at 3.45 m
    18:37:39: 水池 sc3 is filling at 3.26 m
    18:37:39: Pipe gd2 变化从 open 到 temporarily closed
    18:37:39: Pipe gd3 变化从 temporarily closed 到 open
   
    18:38:00: 平衡， 在 32 试算之后
    18:38:00: 水库 sk1 is closed
    18:38:00: 水池 sc1 is emptying at 3.45 m
    18:38:00: Pipe gd1 变化从 open 到 temporarily closed
    18:38:00: Pipe gd2 变化从 temporarily closed 到 open
   
    18:39:02: 平衡， 在 29 试算之后
    18:39:02: 水库 sk1 is emptying
    18:39:02: 水池 sc1 is filling at 3.42 m
    18:39:02: 水池 sc2 is filling at 3.41 m
    18:39:02: 水池 sc3 is emptying at 3.30 m
    18:39:02: Pipe gd1 变化从 temporarily closed 到 open
    18:39:02: Pipe gd3 变化从 open 到 temporarily closed
   
    18:40:21: 平衡， 在 32 试算之后
    18:40:21: 水池 sc2 is emptying at 3.45 m
    18:40:21: 水池 sc3 is filling at 3.26 m
    18:40:21: Pipe gd2 变化从 open 到 temporarily closed
    18:40:21: Pipe gd3 变化从 temporarily closed 到 open
   
    18:40:42: 平衡， 在 32 试算之后
    18:40:42: 水库 sk1 is closed
    18:40:42: 水池 sc1 is emptying at 3.45 m
    18:40:42: Pipe gd1 变化从 open 到 temporarily closed
    18:40:42: Pipe gd2 变化从 temporarily closed 到 open
   
    18:41:41: 平衡， 在 29 试算之后
    18:41:41: 水库 sk1 is emptying
    18:41:41: 水池 sc1 is filling at 3.42 m
    18:41:41: 水池 sc2 is filling at 3.41 m
    18:41:41: 水池 sc3 is emptying at 3.30 m
    18:41:41: Pipe gd1 变化从 temporarily closed 到 open
    18:41:41: Pipe gd3 变化从 open 到 temporarily closed
   
    18:42:58: 平衡， 在 32 试算之后
    18:42:58: 水池 sc2 is emptying at 3.45 m
    18:42:58: 水池 sc3 is filling at 3.26 m
    18:42:58: Pipe gd2 变化从 open 到 temporarily closed
    18:42:58: Pipe gd3 变化从 temporarily closed 到 open
   
    18:43:17: 平衡， 在 32 试算之后
    18:43:17: 水库 sk1 is closed
    18:43:17: 水池 sc1 is emptying at 3.45 m
    18:43:17: Pipe gd1 变化从 open 到 temporarily closed
    18:43:17: Pipe gd2 变化从 temporarily closed 到 open
   
    18:44:16: 平衡， 在 29 试算之后
    18:44:16: 水库 sk1 is emptying
    18:44:16: 水池 sc1 is filling at 3.42 m
    18:44:16: 水池 sc2 is filling at 3.41 m
    18:44:16: 水池 sc3 is emptying at 3.30 m
[...]
  gd25                 0.02      0.00      0.00
  gd26                 0.00      0.00      0.00
  gd27                 1.00      0.00      0.00
  gd28                 0.00      0.00      0.00
  gd29                 0.00      0.00      0.00
  gd30                 0.00      0.00      0.00
  gd31                 1.00      0.00      0.00
  gd32                 1.00      0.00      0.00
  gd33                 1.00      0.00      0.00
  gd6                  1.00      0.00      0.00
  sb1              12436.50      0.00   -155.23  水泵
  sb2               8801.25      0.00   -183.26  水泵
  sb3              14906.31      0.00   -122.61  水泵
   
   
  节点结果在时刻 20:00:00 :
  ----------------------------------------------
                     需水量      水头      压力
  节点                  Lpm         m         m
  ----------------------------------------------
  ljd1                 0.00    155.23    155.23
  ljd2                 0.00    291.66    185.66
  ljd3                 0.00    413.41    125.41
  ljd4                 1.00    373.93      2.93
  ljd6                 0.00    290.79     50.79
  ljd8                 1.00    290.79     10.79
  ljd9                 0.00    290.79     10.79
  ljd10                0.00    290.79     15.79
  ljd11                0.00    290.79     20.79
  ljd12                0.00    290.79     25.79
  ljd13                1.00    290.79     35.79
  ljd14                2.00    290.79     15.79
  ljd15                0.00    290.79     15.79
  ljd16                0.00    290.79     20.79
  ljd17                0.00    290.79     25.79
  ljd18                0.00    290.79     30.79
  ljd19                5.00    290.79     30.79
  ljd20               15.00    290.79     25.79
  ljd21                0.00    290.79     30.79
  ljd22                0.00    398.12     98.12
  ljd23                1.00    398.12      8.12
  ljd24                0.00    398.12      8.12
  ljd25                0.00    398.12      8.12
  ljd26                0.00    398.12     13.12
  ljd27                0.00    398.12     13.12
  ljd28                0.00    398.12     13.12
  ljd29                0.00    373.93     53.93
  ljd30                0.00    373.93     73.93
  ljd31                1.00    373.93     93.93
  ljd5                 1.00    290.79     90.79
  sk1             -12436.22      0.00      0.00  水库
  sc1               3628.96    108.43      3.43  水池
  sc2              -6124.00    290.79      3.39  水池
  sc3               7389.41    398.12      3.27  水池
  sc4               7513.84    373.93      3.25  水池
   
   
  管段结果在时刻 20:00:00 :
  ----------------------------------------------
                       流量      流速  水头损失
  管段                  Lpm       m/s    /1000m
  ----------------------------------------------
  gd1              12436.22      2.15     10.20
  gd2               8807.26      0.29      0.10
  gd3              14906.25      1.27      2.51
  gd4               7515.84      3.99     61.27
  gd5                  1.00      0.00      0.00
  gd9                  1.00      0.00      0.00
  gd10                23.00      0.00      0.00
  gd11                 1.00      0.00      0.00
  gd12                 1.00      0.00      0.00
  gd13                 1.00      0.00      0.00
  gd14                 1.00      0.00      0.00
  gd15                 2.00      0.00      0.00
  gd16                20.00      0.00      0.00
  gd17                20.00      0.00      0.00
  gd18                 5.00      0.00      0.00
  gd19                 5.00      0.00      0.00
  gd20                 5.00      0.00      0.00
  gd21                15.00      0.00      0.00
  gd22                 0.00      0.00      0.00
  gd23                25.00      0.00      0.00
  gd24                 1.01      0.00      0.00
  gd25                 0.00      0.00      0.00
  gd26                 0.00      0.00      0.00
  gd27                 1.00      0.00      0.00
  gd28                 0.00      0.00      0.00
  gd29                -0.00      0.00      0.00
  gd30                -0.00      0.00      0.00
  gd31                 1.00      0.00      0.00
  gd32                 1.00      0.00      0.00
  gd33                 1.00      0.00      0.00
  gd6                  1.00      0.00      0.00
  sb1              12436.22      0.00   -155.23  水泵
  sb2               8807.26      0.00   -183.23  水泵
  sb3              14906.25      0.00   -122.61  水泵
   
   
  节点结果在时刻 21:00:00 :
  ----------------------------------------------
                     需水量      水头      压力
  节点                  Lpm         m         m
  ----------------------------------------------
  ljd1                 0.00    155.23    155.23
  ljd2                 0.00    291.70    185.70
  ljd3                 0.00    413.42    125.42
  ljd4                 1.00    373.93      2.93
  ljd6                 0.00    290.83     50.83
  ljd8                 1.00    290.83     10.83
  ljd9                 0.00    290.83     10.83
  ljd10                0.00    290.83     15.83
  ljd11                0.00    290.83     20.83
  ljd12                0.00    290.83     25.83
  ljd13                1.00    290.83     35.83
  ljd14                2.00    290.83     15.83
  ljd15                0.00    290.83     15.83
  ljd16                0.00    290.83     20.83
  ljd17                0.00    290.83     25.83
  ljd18                0.00    290.83     30.83
  ljd19                5.00    290.83     30.83
  ljd20               15.00    290.83     25.83
  ljd21                0.00    290.83     30.83
  ljd22                0.00    398.13     98.13
  ljd23                1.00    398.13      8.13
  ljd24                0.00    398.13      8.13
  ljd25                0.00    398.13      8.13
  ljd26                0.00    398.13     13.13
  ljd27                0.00    398.13     13.13
  ljd28                0.00    398.13     13.13
  ljd29                0.00    373.93     53.93
  ljd30                0.00    373.93     73.93
  ljd31                1.00    373.93     93.93
  ljd5                 1.00    290.83     90.83
  sk1             -12434.30      0.00      0.00  水库
  sc1               3632.89    108.45      3.45  水池
  sc2              -6133.60    290.83      3.43  水池
  sc3               7392.16    398.13      3.28  水池
  sc4               7514.83    373.93      3.25  水池
   
   
  管段结果在时刻 21:00:00 :
  ----------------------------------------------
                       流量      流速  水头损失
  管段                  Lpm       m/s    /1000m
  ----------------------------------------------
  gd1              12434.30      2.15     10.19
  gd2               8801.41      0.29      0.10
  gd3              14910.00      1.27      2.51
  gd4               7516.83      3.99     61.29
  gd5                  1.00      0.00      0.00
  gd9                  1.00      0.00      0.00
  gd10                23.00      0.00      0.00
  gd11                 1.00      0.00      0.00
  gd12                 1.00      0.00      0.00
  gd13                 1.00      0.00      0.00
  gd14                 1.00      0.00      0.00
  gd15                 2.00      0.00      0.00
  gd16                20.00      0.00      0.00
  gd17                20.00      0.00      0.00
  gd18                 5.00      0.00      0.00
  gd19                 5.00      0.00      0.00
  gd20                 5.00      0.00      0.00
  gd21                15.00      0.00      0.00
  gd22                 0.00      0.00      0.00
  gd23                25.00      0.00      0.00
  gd24                 1.02      0.00      0.00
  gd25                 0.02      0.00      0.00
  gd26                 0.00      0.00      0.00
  gd27                 1.00      0.00      0.00
  gd28                -0.00      0.00      0.00
  gd29                 0.00      0.00      0.00
  gd30                 0.00      0.00      0.00
  gd31                 1.00      0.00      0.00
  gd32                 1.00      0.00      0.00
  gd33                 1.00      0.00      0.00
  gd6                  1.00      0.00      0.00
  sb1              12434.30      0.00   -155.23  水泵
  sb2               8801.41      0.00   -183.26  水泵
  sb3              14910.00      0.00   -122.59  水泵
   
   
  节点结果在时刻 22:00:00 :
  ----------------------------------------------
                     需水量      水头      压力
  节点                  Lpm         m         m
  ----------------------------------------------
  ljd1                 0.00    155.23    155.23
  ljd2                 0.00    291.72    185.72
  ljd3                 0.00    413.43    125.43
  ljd4                 1.00    373.93      2.93
  ljd6                 0.00    290.85     50.85
  ljd8                 1.00    290.85     10.85
  ljd9                 0.00    290.85     10.85
  ljd10                0.00    290.85     15.85
  ljd11                0.00    290.85     20.85
  ljd12                0.00    290.85     25.85
  ljd13                1.00    290.85     35.85
  ljd14                2.00    290.85     15.85
  ljd15                0.00    290.85     15.85
  ljd16                0.00    290.85     20.85
  ljd17                0.00    290.85     25.85
  ljd18                0.00    290.85     30.85
  ljd19                5.00    290.85     30.85
  ljd20               15.00    290.85     25.85
  ljd21                0.00    290.85     30.85
  ljd22                0.00    398.14     98.14
  ljd23                1.00    398.14      8.14
  ljd24                0.00    398.14      8.14
  ljd25                0.00    398.14      8.14
  ljd26                0.00    398.14     13.14
  ljd27                0.00    398.14     13.14
  ljd28                0.00    398.14     13.14
  ljd29                0.00    373.93     53.93
  ljd30                0.00    373.93     73.93
  ljd31                1.00    373.93     93.93
  ljd5                 1.00    290.85     90.85
  sk1             -12434.73      0.00      0.00  水库
  sc1               3637.05    108.44      3.44  水池
  sc2              -6137.88    290.85      3.45  水池
  sc3               7391.32    398.14      3.29  水池
  sc4               7516.23    373.93      3.25  水池
   
   
  管段结果在时刻 22:00:00 :
  ----------------------------------------------
                       流量      流速  水头损失
  管段                  Lpm       m/s    /1000m
  ----------------------------------------------
  gd1              12434.73      2.15     10.19
  gd2               8797.68      0.29      0.10
  gd3              14910.56      1.27      2.51
  gd4               7518.23      3.99     61.31
  gd5                  1.00      0.00      0.00
  gd9                  1.00      0.00      0.00
  gd10                23.00      0.00      0.00
  gd11                 1.00      0.00      0.00
  gd12                 1.00      0.00      0.00
  gd13                 1.00      0.00      0.00
  gd14                 1.00      0.00      0.00
  gd15                 2.00      0.00      0.00
  gd16                20.00      0.00      0.00
  gd17                20.00      0.00      0.00
  gd18                 5.00      0.00      0.00
  gd19                 5.00      0.00      0.00
  gd20                 5.00      0.00      0.00
  gd21                15.00      0.00      0.00
  gd22                 0.00      0.00      0.00
  gd23                25.00      0.00      0.00
  gd24                 1.01      0.00      0.00
  gd25                 0.00      0.00      0.00
  gd26                -0.00      0.00      0.00
  gd27                 1.00      0.00      0.00
  gd28                 0.00      0.00      0.00
  gd29                 0.00      0.00      0.00
  gd30                -0.00      0.00      0.00
  gd31                 1.00      0.00      0.00
  gd32                 1.00      0.00      0.00
  gd33                 1.00      0.00      0.00
  gd6                  1.00      0.00      0.00
  sb1              12434.73      0.00   -155.23  水泵
  sb2               8797.68      0.00   -183.27  水泵
  sb3              14910.56      0.00   -122.58  水泵
   
   
  节点结果在时刻 23:00:00 :
  ----------------------------------------------
                     需水量      水头      压力
  节点                  Lpm         m         m
  ----------------------------------------------
  ljd1                 0.00    155.23    155.23
  ljd2                 0.00    291.71    185.71
  ljd3                 0.00    413.43    125.43
  ljd4                 1.00    373.93      2.93
  ljd6                 0.00    290.84     50.84
  ljd8                 1.00    290.84     10.84
  ljd9                 0.00    290.84     10.84
  ljd10                0.00    290.84     15.84
  ljd11                0.00    290.84     20.84
  ljd12                0.00    290.84     25.84
  ljd13                1.00    290.84     35.84
  ljd14                2.00    290.84     15.84
  ljd15                0.00    290.84     15.84
  ljd16                0.00    290.84     20.84
  ljd17                0.00    290.84     25.84
  ljd18                0.00    290.84     30.84
  ljd19                5.00    290.84     30.84
  ljd20               15.00    290.84     25.84
  ljd21                0.00    290.84     30.84
  ljd22                0.00    398.15     98.15
  ljd23                1.00    398.15      8.15
  ljd24                0.00    398.15      8.15
  ljd25                0.00    398.15      8.15
  ljd26                0.00    398.15     13.15
  ljd27                0.00    398.15     13.15
  ljd28                0.00    398.15     13.15
  ljd29                0.00    373.93     53.93
  ljd30                0.00    373.93     73.93
  ljd31                1.00    373.93     93.93
  ljd5                 1.00    290.84     90.84
  sk1             -12435.27      0.00      0.00  水库
  sc1               3636.24    108.44      3.44  水池
  sc2              -6134.53    290.84      3.44  水池
  sc3               7387.82    398.15      3.30  水池
  sc4               7517.72    373.93      3.25  水池
   
   
  管段结果在时刻 23:00:00 :
  ----------------------------------------------
                       流量      流速  水头损失
  管段                  Lpm       m/s    /1000m
  ----------------------------------------------
  gd1              12435.27      2.15     10.20
  gd2               8799.03      0.29      0.10
  gd3              14908.56      1.27      2.51
  gd4               7519.72      3.99     61.33
  gd5                  1.00      0.00      0.00
  gd9                  1.00      0.00      0.00
  gd10                23.01      0.00      0.00
  gd11                 1.00      0.00      0.00
  gd12                 1.00      0.00      0.00
  gd13                 1.00      0.00      0.00
  gd14                 1.00      0.00      0.00
  gd15                 2.00      0.00      0.00
  gd16                20.01      0.00      0.00
  gd17                20.01      0.00      0.00
  gd18                 5.01      0.00      0.00
  gd19                 5.00      0.00      0.00
  gd20                 5.00      0.00      0.00
  gd21                15.00      0.00      0.00
  gd22                 0.00      0.00      0.00
  gd23                25.01      0.00      0.00
  gd24                 1.02      0.00      0.00
  gd25                 0.02      0.00      0.00
  gd26                 0.00      0.00      0.00
  gd27                 1.00      0.00      0.00
  gd28                 0.00      0.00      0.00
  gd29                 0.00      0.00      0.00
  gd30                 0.00      0.00      0.00
  gd31                 1.00      0.00      0.00
  gd32                 1.00      0.00      0.00
  gd33                 1.00      0.00      0.00
  gd6                  1.00      0.00      0.00
  sb1              12435.27      0.00   -155.23  水泵
  sb2               8799.03      0.00   -183.27  水泵
  sb3              14908.56      0.00   -122.60  水泵
   
   
  节点结果在时刻 24:00:00 :
  ----------------------------------------------
                     需水量      水头      压力
  节点                  Lpm         m         m
  ----------------------------------------------
  ljd1                 0.00    155.23    155.23
  ljd2                 0.00    291.69    185.69
  ljd3                 0.00    413.43    125.43
  ljd4                 1.00    373.93      2.93
  ljd6                 0.00    290.82     50.82
  ljd8                 1.00    290.82     10.82
  ljd9                 0.00    290.82     10.82
  ljd10                0.00    290.82     15.82
  ljd11                0.00    290.82     20.82
  ljd12                0.00    290.82     25.82
  ljd13                1.00    290.82     35.82
  ljd14                2.00    290.82     15.82
  ljd15                0.00    290.82     15.82
  ljd16                0.00    290.82     20.82
  ljd17                0.00    290.82     25.82
  ljd18                0.00    290.82     30.82
  ljd19                5.00    290.82     30.82
  ljd20               15.00    290.82     25.82
  ljd21                0.00    290.82     30.82
  ljd22                0.00    398.14     98.14
  ljd23                1.00    398.14      8.14
  ljd24                0.00    398.14      8.14
  ljd25                0.00    398.14      8.14
  ljd26                0.00    398.14     13.14
  ljd27                0.00    398.14     13.14
  ljd28                0.00    398.14     13.14
  ljd29                0.00    373.93     53.93
  ljd30                0.00    373.93     73.93
  ljd31                1.00    373.93     93.93
  ljd5                 1.00    290.82     90.82
  sk1             -12434.58      0.00      0.00  水库
  sc1               3630.81    108.44      3.44  水池
  sc2              -6128.32    290.82      3.42  水池
  sc3               7386.74    398.14      3.29  水池
  sc4               7517.33    373.93      3.25  水池
   
   
  管段结果在时刻 24:00:00 :
  ----------------------------------------------
                       流量      流速  水头损失
  管段                  Lpm       m/s    /1000m
  ----------------------------------------------
  gd1              12434.58      2.15     10.19
  gd2               8803.77      0.29      0.10
  gd3              14907.08      1.27      2.51
  gd4               7519.33      3.99     61.33
  gd5                  1.00      0.00      0.00
  gd9                  1.00      0.00      0.00
  gd10                23.00      0.00      0.00
  gd11                 1.00      0.00      0.00
  gd12                 1.00      0.00      0.00
  gd13                 1.00      0.00      0.00
  gd14                 1.00      0.00      0.00
  gd15                 2.00      0.00      0.00
  gd16                20.00      0.00      0.00
  gd17                20.00      0.00      0.00
  gd18                 5.00      0.00      0.00
  gd19                 5.00      0.00      0.00
  gd20                 5.00      0.00      0.00
  gd21                15.00      0.00      0.00
  gd22                 0.00      0.00      0.00
  gd23                25.00      0.00      0.00
  gd24                 1.02      0.00      0.00
  gd25                 0.02      0.00      0.00
  gd26                 0.00      0.00      0.00
  gd27                 1.00      0.00      0.00
  gd28                -0.00      0.00      0.00
  gd29                 0.00      0.00      0.00
  gd30                 0.00      0.00      0.00
  gd31                 1.00      0.00      0.00
  gd32                 1.00      0.00      0.00
  gd33                 1.00      0.00      0.00
  gd6                  1.00      0.00      0.00
  sb1              12434.58      0.00   -155.23  水泵
  sb2               8803.77      0.00   -183.25  水泵
  sb3              14907.08      0.00   -122.61  水泵
   
  分析终止于 Fri Mar 28 10:28:06 2025
